$ Generated by KooRemapper assemble (generate box)
*KEYWORD
*MAT_ELASTIC
$#     mid        ro         e        pr        da        db  not used
         12.7000E-09     70000      0.33       0.0       0.0       0.0
*SECTION_SOLID
$#   secid    elform       aet
         1         1         0
*PART
Test Box
         1         1         1
*NODE
       1   0.0000000E+00   0.0000000E+00   0.0000000E+00
       2   1.0000000E+00   0.0000000E+00   0.0000000E+00
       3   2.0000000E+00   0.0000000E+00   0.0000000E+00
       4   3.0000000E+00   0.0000000E+00   0.0000000E+00
       5   4.0000000E+00   0.0000000E+00   0.0000000E+00
       6   5.0000000E+00   0.0000000E+00   0.0000000E+00
       7   6.0000000E+00   0.0000000E+00   0.0000000E+00
       8   7.0000000E+00   0.0000000E+00   0.0000000E+00
       9   8.0000000E+00   0.0000000E+00   0.0000000E+00
      10   9.0000000E+00   0.0000000E+00   0.0000000E+00
      11   1.0000000E+01   0.0000000E+00   0.0000000E+00
      12   0.0000000E+00   1.0000000E+00   0.0000000E+00
      13   1.0000000E+00   1.0000000E+00   0.0000000E+00
      14   2.0000000E+00   1.0000000E+00   0.0000000E+00
      15   3.0000000E+00   1.0000000E+00   0.0000000E+00
      16   4.0000000E+00   1.0000000E+00   0.0000000E+00
      17   5.0000000E+00   1.0000000E+00   0.0000000E+00
      18   6.0000000E+00   1.0000000E+00   0.0000000E+00
      19   7.0000000E+00   1.0000000E+00   0.0000000E+00
      20   8.0000000E+00   1.0000000E+00   0.0000000E+00
$ ... 706 like lines cut
*ELEMENT_SOLID
     301       3     244     248     292     288     245     249     293     289
     302       3     248     252     296     292     249     253     297     293
     303       3     252     256     300     296     253     257     301     297
     304       3     256     260     304     300     257     261     305     301
     305       3     260     264     308     304     261     265     309     305
     306       3     264     268     312     308     265     269     313     309
     307       3     268     272     316     312     269     273     317     313
     308       3     272     276     320     316     273     277     321     317
     309       3     276     280     324     320     277     281     325     321
     310       3     280     284     328     324     281     285     329     325
     311       3     288     292     336     332     289     293     337     333
     312       3     292     296     340     336     293     297     341     337
     313       3     296     300     344     340     297     301     345     341
     314       3     300     304     348     344     301     305     349     345
     315       3     304     308     352     348     305     309     353     349
     316       3     308     312     356     352     309     313     357     353
     317       3     312     316     360     356     313     317     361     357
     318       3     316     320     364     360     317     321     365     361
     319       3     320     324     368     364     321     325     369     365
     320       3     324     328     372     368     325     329     373     369
$ ... 180 like lines cut
*ELEMENT_SHELL
     501       4     246     250     294     290
     502       4     250     254     298     294
     503       4     254     258     302     298
     504       4     258     262     306     302
     505       4     262     266     310     306
     506       4     266     270     314     310
     507       4     270     274     318     314
     508       4     274     278     322     318
     509       4     278     282     326     322
     510       4     282     286     330     326
     511       4     290     294     338     334
     512       4     294     298     342     338
     513       4     298     302     346     342
     514       4     302     306     350     346
     515       4     306     310     354     350
     516       4     310     314     358     354
     517       4     314     318     362     358
     518       4     318     322     366     362
     519       4     322     326     370     366
     520       4     326     330     374     370
$ ... 80 like lines cut
*MAT_ELASTIC_TITLE
TShell Layer
$#     mid        ro         e        pr
         2 1.400E-09 3.000E+03 3.400E-01
*SECTION_TSHELL
$#  secid    elform
         2         1
*PART
Restack Layer 1
$#     pid     secid       mid
         2         2         0
*SECTION_SOLID
$#  secid    elform
         3         1
*PART
Restack Layer 2
$#     pid     secid       mid
         3         3         0
*SECTION_SHELL
$#  secid    elform      shrf       nip     propt
         4         2       1.0         2       0.0
$#     t1        t2        t3        t4
  0.100000  0.100000  0.100000  0.100000
*PART
Restack Layer 3
$#     pid     secid       mid
         4         4         0
*END
