*KEYWORD i10=y
*TITLE                                                                          
mesh                                                                            
$#
$#$$$$$$$$$$$$$$$$$$$$$$$$$$$$$$$$$$$$$$$$$$$$$$$$$$$
$#		Writing Control Cards		
$#$$$$$$$$$$$$$$$$$$$$$$$$$$$$$$$$$$$$$$$$$$$$$$$$$$$
$#
$#
$#$$$$$$$$$$$$$$$$$$$$$$$$$$$$$$$$$$$$$$$$$$$$$$$$$$$
$#		Writing Databases		
$#$$$$$$$$$$$$$$$$$$$$$$$$$$$$$$$$$$$$$$$$$$$$$$$$$$$
$#
$#
$#$$$$$$$$$$$$$$$$$$$$$$$$$$$$$$$$$$$$$$$$$$$$$$$$$$$
$#		Writing *DEFINE_option cards		
$#$$$$$$$$$$$$$$$$$$$$$$$$$$$$$$$$$$$$$$$$$$$$$$$$$$$
$#
$#
$#$$$$$$$$$$$$$$$$$$$$$$$$$$$$$$$$$$$$$$$$$$$$$$$$$$$
$#		Writing Materials		
$#$$$$$$$$$$$$$$$$$$$$$$$$$$$$$$$$$$$$$$$$$$$$$$$$$$$
$#
*MAT_ELASTIC                                                                    
$      MID        RO         E        PR        DA        DB         K
         1         0         0         0         0         0         0
$#
$#$$$$$$$$$$$$$$$$$$$$$$$$$$$$$$$$$$$$$$$$$$$$$$$$$$$
$#		Writing Sections		
$#$$$$$$$$$$$$$$$$$$$$$$$$$$$$$$$$$$$$$$$$$$$$$$$$$$$
$#
*SECTION_SOLID                                                                  
$       id   elformu       aet
        12         1         1
*SECTION_SOLID                                                                  
$       id   elformu       aet
        13         1         1
*SECTION_SOLID                                                                  
$       id   elformu       aet
        14         1         1
$#
$#$$$$$$$$$$$$$$$$$$$$$$$$$$$$$$$$$$$$$$$$$$$$$$$$$$$
$#		Writing Parts		
$#$$$$$$$$$$$$$$$$$$$$$$$$$$$$$$$$$$$$$$$$$$$$$$$$$$$
$#
*PART                                                                           
$name
LAYER_1                                                               
$       id     secid       mid     eosid      hgid      grav    adpopt      tmid
         9        12         1         0         0         0         0         0
*PART                                                                           
$name
LAYER_2                                                               
$       id     secid       mid     eosid      hgid      grav    adpopt      tmid
        10        13         1         0         0         0         0         0
*PART                                                                           
$name
LAYER_3                                                               
$       id     secid       mid     eosid      hgid      grav    adpopt      tmid
        11        14         1         0         0         0         0         0
$#
$#$$$$$$$$$$$$$$$$$$$$$$$$$$$$$$$$$$$$$$$$$$$$$$$$$$$
$#		Writing Nodes		
$#$$$$$$$$$$$$$$$$$$$$$$$$$$$$$$$$$$$$$$$$$$$$$$$$$$$
$#
*NODE %
$     Node               x               y               z      tc      rc
         1       50.000001       50.000001      0.25000001       0       0
         2              50       48.000001            0.25       0       0
         3       48.000001              50            0.25       0       0
         4              48              48      0.24999999       0       0
         5       50.000001       50.000001               0       0       0
         6              50       48.000001               0       0       0
         7       48.000001              50               0       0       0
         8              48              48               0       0       0
         9       46.000001              50            0.25       0       0
        10              46              48      0.24999999       0       0
        11       46.000001              50               0       0       0
        12              46              48               0       0       0
        13       44.000001              50            0.25       0       0
        14              44              48      0.24999999       0       0
        15       44.000001              50               0       0       0
        16              44              48               0       0       0
        17       42.000001              50            0.25       0       0
        18              42              48      0.24999999       0       0
        19       42.000001              50               0       0       0
        20              42              48               0       0       0
$ ... 10384 like lines cut
$#
$#$$$$$$$$$$$$$$$$$$$$$$$$$$$$$$$$$$$$$$$$$$$$$$$$$$$
$#		Writing Elements		
$#$$$$$$$$$$$$$$$$$$$$$$$$$$$$$$$$$$$$$$$$$$$$$$$$$$$
$#
*ELEMENT_SOLID
         1         9
         1         2         4         3         5         6         8         7
         2         9
         3         4        10         9         7         8        12        11
         3         9
         9        10        14        13        11        12        16        15
         4         9
        13        14        18        17        15        16        20        19
         5         9
        17        18        22        21        19        20        24        23
         6         9
        21        22        26        25        23        24        28        27
         7         9
        25        26        30        29        27        28        32        31
         8         9
        29        30        34        33        31        32        36        35
         9         9
        33        34        38        37        35        36        40        39
        10         9
        37        38        42        41        39        40        44        43
$ ... 14980 like lines cut
$#
$#$$$$$$$$$$$$$$$$$$$$$$$$$$$$$$$$$$$$$$$$$$$$$$$$$$$
$#		Writing Sets		
$#$$$$$$$$$$$$$$$$$$$$$$$$$$$$$$$$$$$$$$$$$$$$$$$$$$$
$#
*SET_NODE_LIST_TITLE                                                            
INTERFACE_LAYER_1_LAYER_2
         3
         1         2         3         4         9        10        13        14
        17        18        21        22        25        26        29        30
        33        34        37        38        41        42        45        46
        49        50        53        54        57        58        61        62
        65        66        69        70        73        74        77        78
        81        82        85        86        89        90        93        94
        97        98       101       102       105       106       109       110
       113       114       117       118       121       122       125       126
       129       130       133       134       137       138       141       142
       145       146       149       150       153       154       157       158
       161       162       165       166       169       170       173       174
       177       178       181       182       185       186       189       190
       193       194       197       198       201       202       205       206
       209       211       213       215       217       219       221       223
       225       227       229       231       233       235       237       239
       241       243       245       247       249       251       253       255
       257       259       261       263       265       267       269       271
       273       275       277       279       281       283       285       287
       289       291       293       295       297       299       301       303
$ ... 307 like lines cut
*SET_NODE_LIST_TITLE                                                            
INTERFACE_LAYER_2_LAYER_3
         6
      5203      5204      5205      5206      5207      5208      5209      5210
      5211      5212      5213      5214      5215      5216      5217      5218
      5219      5220      5221      5222      5223      5224      5225      5226
      5227      5228      5229      5230      5231      5232      5233      5234
      5235      5236      5237      5238      5239      5240      5241      5242
      5243      5244      5245      5246      5247      5248      5249      5250
      5251      5252      5253      5254      5255      5256      5257      5258
      5259      5260      5261      5262      5263      5264      5265      5266
      5267      5268      5269      5270      5271      5272      5273      5274
      5275      5276      5277      5278      5279      5280      5281      5282
      5283      5284      5285      5286      5287      5288      5289      5290
      5291      5292      5293      5294      5295      5296      5297      5298
      5299      5300      5301      5302      5303      5304      5305      5306
      5307      5308      5309      5310      5311      5312      5313      5314
      5315      5316      5317      5318      5319      5320      5321      5322
      5323      5324      5325      5326      5327      5328      5329      5330
      5331      5332      5333      5334      5335      5336      5337      5338
      5339      5340      5341      5342      5343      5344      5345      5346
      5347      5348      5349      5350      5351      5352      5353      5354
$ ... 307 like lines cut
$#
$#$$$$$$$$$$$$$$$$$$$$$$$$$$$$$$$$$$$$$$$$$$$$$$$$$$$
$#		Writing Boundary Conditions		
$#$$$$$$$$$$$$$$$$$$$$$$$$$$$$$$$$$$$$$$$$$$$$$$$$$$$
$#
$BOUNDARY CONDITIONS                                                            
$
$
$==========================================================================
$  LS-DYNA Implicit Eigenvalue (Modal) Analysis Control Cards
$  Generated by MX Digital Twin Modeller
$==========================================================================
$
$--- Switch to implicit, eigenvalue mode ---
$
*CONTROL_IMPLICIT_GENERAL
$#  imflag       dt0    imform      nsbs       igs     cnstn      form    zero_v
         1       0.0         2         1         0         0         0         0
$
$--- Eigenvalue extraction parameters ---
$  NEIG    : Number of eigenvalues to extract
$  LFLAG=2 : Lower bound in frequency (Hz), 0=none
$  RFLAG=2 : Upper bound in frequency (Hz), 0=none
$  EIGMTH  : 2=Lanczos, 3=Inverse Power, 101=BCSLIB-EXT
$
*CONTROL_IMPLICIT_EIGENVALUE
$#    neig    center     lflag    lftend     rflag    rhtend    eigmth    shfscl
        10       0.0         0       0.0         0       0.0         2       0.0
$
$--- Implicit solver selection ---
$  LSOLVR : 2=Multi-frontal Sparse, 4=PARDISO, 6=MUMPS
$  NEGEV  : 0=stop, 1=warn, 2=allow negative eigenvalues
$  AUTOSPC: 1=auto single-point constraints for singular DOF
$
*CONTROL_IMPLICIT_SOLVER
$#  lsolvr    lprint     negev     order      drcm    drcprm   autospc   autotol
         2         0         2         0         4       0.0         1       0.0
$
$--- Implicit auto time stepping (for static preload) ---
$
*CONTROL_IMPLICIT_AUTO
$#   iauto    iteopt    itewin     dtmin     dtmax     dtexp     kfail    kcycle
         1        11         5       0.0       0.0       0.0         0         0
$
$--- Analysis termination ---
$
*CONTROL_TERMINATION
$#  endtim    endcyc     dtmin    endeng    endmas     nosol
       0.0         0       0.0       0.0  1.000E+8         0
$
$==========================================================================
$  OUTPUT CONTROL
$==========================================================================
$
$--- Binary plot output (d3plot + d3eigv) ---
$
*DATABASE_BINARY_D3PLOT
$#      dt      lcdt      beam     npltc    psetid
       0.0         0         0         0         0
$
$--- Binary output extent (what fields to include) ---
$
*DATABASE_EXTENT_BINARY
$#   neiph     neips    maxint    strflg    sigflg    epsflg    rltflg    engflg
         0         0         3         1         1         1         1         1
$#  cmpflg    ieverp    beamip     dcomp      shge     stssz    n3thdt   ialemat
         0         0         0         1         1         0         0         0
$# nintsld   pkp_sen      sclp    unused     msscl     therm    intout    nodout
         0         0    1.0000         0         0         0    STRESS    STRESS
$
$--- General output control ---
$
*CONTROL_OUTPUT
$#   npopt    netefq     nrefup    iaccop     optefq    ipnint    iketefq
         0         0         0         0       0.0         0         0
$
$==========================================================================
$  ADDITIONAL CONTROLS
$==========================================================================
$
$--- Energy computation (hourglass, stonewall, sliding, Rayleigh) ---
$
*CONTROL_ENERGY
$#    hgen      rwen    slnten     rylen
         2         2         2         2
$
$--- Hourglass control ---
$  IHQ: 6=Belytschko-Bindeman assumed strain (shells)
$  QH : Hourglass coefficient (default 0.10)
$
*CONTROL_HOURGLASS
$#     ihq        qh
         6   0.10000
$
$--- Accuracy / objectivity settings ---
$  OSU=1 : Objective stress update (2nd order accurate)
$  INN=4 : Invariant node numbering for shells + solids
$
*CONTROL_ACCURACY
$#     osu       inn    pidosu      iacc
         1         4         0         0
$
$--- Bulk viscosity (standard defaults) ---
$
*CONTROL_BULK_VISCOSITY
$#      q1        q2      type     btype
    1.5000   0.06000        -2         0
$
$--- Shell element control ---
$  WRPANG=20 : Shell warping angle limit
$  ESORT =1  : Auto-sort shell formulations for accuracy
$  ISTUPD=1  : Shell thickness update (large strain)
$  THEORY=2  : BWC (Belytschko-Wong-Chiang) shell theory
$
*CONTROL_SHELL
$#  wrpang    esort     irnxx    istupd    theory       bwc     miter      proj
   20.0000         1        -1         1         2         2         1         0
$
$--- Solid element control ---
$  ESORT=1 : Auto-sort solid formulations
$
*CONTROL_SOLID
$#   esort    fmatrx    niptets      swlocl    ptefct
         1         0         4         0         0
$
$==========================================================================
$  NOTE: Material (*MAT_), mesh (*ELEMENT_, *NODE), boundary conditions
$  (*BOUNDARY_SPC_), and load (*LOAD_) cards are in separate .k includes.
$==========================================================================
$
*SET_SEGMENT_TITLE
Detect_Slave_PID9
$#     sid       da1       da2       da3       da4
         1  0.000000  0.000000  0.000000  0.000000
$#      n1        n2        n3        n4
         1         2         4         3
         1         2         6         5
         1         3         7         5
         2       205       206         4
         2       205       207         6
         3         4        10         9
         3         9        11         7
         4       206       209        10
         9        10        14        13
         9        13        15        11
        10       209       211        14
        13        14        18        17
        13        17        19        15
        14       211       213        18
        17        18        22        21
        17        21        23        19
        18       213       215        22
        21        22        26        25
        21        25        27        23
        22       215       217        26
$ ... 2680 like lines cut
*SET_SEGMENT_TITLE
Detect_Master_PID10
$#     sid       da1       da2       da3       da4
         2  0.000000  0.000000  0.000000  0.000000
$#      n1        n2        n3        n4
         1         2         4         3
      5203      5204         2         1
      5203      5205         3         1
         2       205       206         4
      5204      5305       205         2
         3         4        10         9
      5205      5207         9         3
         4       206       209        10
         9        10        14        13
      5207      5209        13         9
        10       209       211        14
        13        14        18        17
      5209      5211        17        13
        14       211       213        18
        17        18        22        21
      5211      5213        21        17
        18       213       215        22
        21        22        26        25
      5213      5215        25        21
        22       215       217        26
$ ... 2680 like lines cut
*CONTACT_TIED_SURFACE_TO_SURFACE_TITLE
AUTO_PID9_PID10
$#    ssid      msid     sstyp     mstyp    sboxid    mboxid       spr       mpr
         1         2         0         0         0         0         0         0
$#      fs        fd        dc        vc       vdc    penchk        bt        dt
      0.00      0.00      0.00      0.00      0.00         0      0.00 1.000E+20
$#    sfsa      sfsb      sast      sbst     sfsat     sfsbt       fsf       vsf
      1.00      1.00      0.00      0.00      1.00      1.00      0.00      0.00
*SET_SEGMENT_TITLE
Detect_Slave_PID9
$#     sid       da1       da2       da3       da4
         3  0.000000  0.000000  0.000000  0.000000
$#      n1        n2        n3        n4
         1         2         6         5
         1         3         7         5
         2       205       207         6
         3         9        11         7
         9        13        15        11
        13        17        19        15
        17        21        23        19
        21        25        27        23
        25        29        31        27
        29        33        35        31
        33        37        39        35
        37        41        43        39
        41        45        47        43
        45        49        51        47
        49        53        55        51
        53        57        59        55
        57        61        63        59
        61        65        67        63
        65        69        71        67
        69        73        75        71
$ ... 180 like lines cut
*SET_SEGMENT_TITLE
Detect_Master_PID11
$#     sid       da1       da2       da3       da4
         4  0.000000  0.000000  0.000000  0.000000
$#      n1        n2        n3        n4
      7804      7805      5204      5203
      7804      7806      5205      5203
      7805      7906      5305      5204
      7806      7808      5207      5205
      7808      7810      5209      5207
      7810      7812      5211      5209
      7812      7814      5213      5211
      7814      7816      5215      5213
      7816      7818      5217      5215
      7818      7820      5219      5217
      7820      7822      5221      5219
      7822      7824      5223      5221
      7824      7826      5225      5223
      7826      7828      5227      5225
      7828      7830      5229      5227
      7830      7832      5231      5229
      7832      7834      5233      5231
      7834      7836      5235      5233
      7836      7838      5237      5235
      7838      7840      5239      5237
$ ... 180 like lines cut
*CONTACT_TIED_SURFACE_TO_SURFACE_TITLE
AUTO_PID9_PID11
$#    ssid      msid     sstyp     mstyp    sboxid    mboxid       spr       mpr
         3         4         0         0         0         0         0         0
$#      fs        fd        dc        vc       vdc    penchk        bt        dt
      0.00      0.00      0.00      0.00      0.00         0      0.00 1.000E+20
$#    sfsa      sfsb      sast      sbst     sfsat     sfsbt       fsf       vsf
      1.00      1.00      0.00      0.00      1.00      1.00      0.00      0.00
*SET_SEGMENT_TITLE
Detect_Slave_PID10
$#     sid       da1       da2       da3       da4
         5  0.000000  0.000000  0.000000  0.000000
$#      n1        n2        n3        n4
      5203      5204         2         1
      5203      5205         3         1
      5204      5305       205         2
      5205      5207         9         3
      5207      5209        13         9
      5209      5211        17        13
      5211      5213        21        17
      5213      5215        25        21
      5215      5217        29        25
      5217      5219        33        29
      5219      5221        37        33
      5221      5223        41        37
      5223      5225        45        41
      5225      5227        49        45
      5227      5229        53        49
      5229      5231        57        53
      5231      5233        61        57
      5233      5235        65        61
      5235      5237        69        65
      5237      5239        73        69
$ ... 2680 like lines cut
*SET_SEGMENT_TITLE
Detect_Master_PID11
$#     sid       da1       da2       da3       da4
         6  0.000000  0.000000  0.000000  0.000000
$#      n1        n2        n3        n4
      5203      5204      5206      5205
      7804      7805      5204      5203
      7804      7806      5205      5203
      5204      5305      5306      5206
      7805      7906      5305      5204
      5205      5206      5208      5207
      7806      7808      5207      5205
      5206      5306      5307      5208
      5207      5208      5210      5209
      7808      7810      5209      5207
      5208      5307      5308      5210
      5209      5210      5212      5211
      7810      7812      5211      5209
      5210      5308      5309      5212
      5211      5212      5214      5213
      7812      7814      5213      5211
      5212      5309      5310      5214
      5213      5214      5216      5215
      7814      7816      5215      5213
      5214      5310      5311      5216
$ ... 2680 like lines cut
*CONTACT_TIED_SURFACE_TO_SURFACE_TITLE
AUTO_PID10_PID11
$#    ssid      msid     sstyp     mstyp    sboxid    mboxid       spr       mpr
         5         6         0         0         0         0         0         0
$#      fs        fd        dc        vc       vdc    penchk        bt        dt
      0.00      0.00      0.00      0.00      0.00         0      0.00 1.000E+20
$#    sfsa      sfsb      sast      sbst     sfsat     sfsbt       fsf       vsf
      1.00      1.00      0.00      0.00      1.00      1.00      0.00      0.00
*DEFINE_CURVE
$#    lcid      sidr       sfa       sfo      offa      offo    dattyp     lcint
         1         0       1.0       1.0       0.0       0.0         0         0
$#                a1                  o1
    0.0000000000E+00    0.0000000000E+00
    1.0000000000E-03    1.0000000000E+00
    1.0000000000E-02    1.0000000000E+00
*SET_SEGMENT_TITLE
Load_PID10_pressure
$#     sid       da1       da2       da3       da4
         1  0.000000  0.000000  0.000000  0.000000
$#      n1        n2        n3        n4
         1         2         4         3
         2       205       206         4
         3         4        10         9
         4       206       209        10
         9        10        14        13
        10       209       211        14
        13        14        18        17
        14       211       213        18
        17        18        22        21
        18       213       215        22
        21        22        26        25
        22       215       217        26
        25        26        30        29
        26       217       219        30
        29        30        34        33
        30       219       221        34
        33        34        38        37
        34       221       223        38
        37        38        42        41
        38       223       225        42
$ ... 9980 like lines cut
*LOAD_SEGMENT_SET
$#    ssid      lcid        sf        at
         1         1    1.0000       0.0
*END
