*KEYWORD
*TITLE
Bent shell plate for formstrain test - L-shape 90deg bend
$
$ 5x2 flat plate (z=0) + 5x2 vertical plate (y=5, z=0..5)
$ MAT_024 with SIGY=200, E=210000
$ SECTION_SHELL T1=1.0
$
*NODE
$#   nid               x               y               z
       1       0.000000       0.000000       0.000000
       2       1.000000       0.000000       0.000000
       3       2.000000       0.000000       0.000000
       4       3.000000       0.000000       0.000000
       5       4.000000       0.000000       0.000000
       6       5.000000       0.000000       0.000000
       7       0.000000       1.000000       0.000000
       8       1.000000       1.000000       0.000000
       9       2.000000       1.000000       0.000000
      10       3.000000       1.000000       0.000000
      11       4.000000       1.000000       0.000000
      12       5.000000       1.000000       0.000000
      13       0.000000       2.000000       0.000000
      14       1.000000       2.000000       0.000000
      15       2.000000       2.000000       0.000000
      16       3.000000       2.000000       0.000000
      17       4.000000       2.000000       0.000000
      18       5.000000       2.000000       0.000000
      19       0.000000       3.000000       0.000000
      20       1.000000       3.000000       0.000000
$ ... 16 like lines cut
$
$ Vertical wall (y=5, z goes up)
$
      37       0.000000       5.000000       1.000000
      38       1.000000       5.000000       1.000000
      39       2.000000       5.000000       1.000000
      40       3.000000       5.000000       1.000000
      41       4.000000       5.000000       1.000000
      42       5.000000       5.000000       1.000000
      43       0.000000       5.000000       2.000000
      44       1.000000       5.000000       2.000000
      45       2.000000       5.000000       2.000000
      46       3.000000       5.000000       2.000000
      47       4.000000       5.000000       2.000000
      48       5.000000       5.000000       2.000000
      49       0.000000       5.000000       3.000000
      50       1.000000       5.000000       3.000000
      51       2.000000       5.000000       3.000000
      52       3.000000       5.000000       3.000000
      53       4.000000       5.000000       3.000000
      54       5.000000       5.000000       3.000000
      55       0.000000       5.000000       4.000000
      56       1.000000       5.000000       4.000000
$ ... 10 like lines cut
*ELEMENT_SHELL
$#   eid     pid      n1      n2      n3      n4
$
$ Flat plate (5x5 grid, 25 elements)
$
       1       1       1       2       8       7
       2       1       2       3       9       8
       3       1       3       4      10       9
       4       1       4       5      11      10
       5       1       5       6      12      11
       6       1       7       8      14      13
       7       1       8       9      15      14
       8       1       9      10      16      15
       9       1      10      11      17      16
      10       1      11      12      18      17
      11       1      13      14      20      19
      12       1      14      15      21      20
      13       1      15      16      22      21
      14       1      16      17      23      22
      15       1      17      18      24      23
      16       1      19      20      26      25
      17       1      20      21      27      26
      18       1      21      22      28      27
      19       1      22      23      29      28
      20       1      23      24      30      29
$ ... 5 like lines cut
$
$ Vertical wall (5x5 grid, 25 elements)
$
      26       1      31      32      38      37
      27       1      32      33      39      38
      28       1      33      34      40      39
      29       1      34      35      41      40
      30       1      35      36      42      41
      31       1      37      38      44      43
      32       1      38      39      45      44
      33       1      39      40      46      45
      34       1      40      41      47      46
      35       1      41      42      48      47
      36       1      43      44      50      49
      37       1      44      45      51      50
      38       1      45      46      52      51
      39       1      46      47      53      52
      40       1      47      48      54      53
      41       1      49      50      56      55
      42       1      50      51      57      56
      43       1      51      52      58      57
      44       1      52      53      59      58
      45       1      53      54      60      59
$ ... 5 like lines cut
*PART
Bent shell
$#     pid     secid       mid
         1         1         1
*SECTION_SHELL
$#   secid    elform      shrf       nip     propt   qr/irid     icomp     setyp
         1         2       1.0         2       1.0         0         0         1
$#      t1        t2        t3        t4      nloc     marea      idof    edgset
  1.000000  1.000000  1.000000  1.000000       0.0       0.0       0.0       0.0
*MAT_PIECEWISE_LINEAR_PLASTICITY
$#     mid        ro         e        pr      sigy      etan      fail      tdel
         1  7.85E-09    210000       0.3       200       0.0       0.0       0.0
$#       c         p      lcss      lcsr        vp       lcf
       0.0       0.0         0         0       0.0         0
$#    eps1      eps2      eps3      eps4      eps5      eps6      eps7      eps8
       0.0       0.0       0.0       0.0       0.0       0.0       0.0       0.0
$#     es1       es2       es3       es4       es5       es6       es7       es8
       0.0       0.0       0.0       0.0       0.0       0.0       0.0       0.0
*INITIAL_STRESS_SHELL
$#    eid  nplane  nthick   nhisv  ntensr   large  nthint  nthhsv
        21       1       2       0       0       0       0       0
$#     T     sigxx     sigyy     sigzz     sigxy     sigyz     sigzx       eps
-1.000e+00 0.000e+00 0.000e+00 0.000e+00 0.000e+00 0.000e+00 0.000e+00 1.110e+00
 1.000e+00 0.000e+00 0.000e+00 0.000e+00 0.000e+00 0.000e+00 0.000e+00 1.110e+00
        22       1       2       0       0       0       0       0
-1.000e+00 0.000e+00 0.000e+00 0.000e+00 0.000e+00 0.000e+00 0.000e+00 1.110e+00
 1.000e+00 0.000e+00 0.000e+00 0.000e+00 0.000e+00 0.000e+00 0.000e+00 1.110e+00
        23       1       2       0       0       0       0       0
-1.000e+00 0.000e+00 0.000e+00 0.000e+00 0.000e+00 0.000e+00 0.000e+00 1.110e+00
 1.000e+00 0.000e+00 0.000e+00 0.000e+00 0.000e+00 0.000e+00 0.000e+00 1.110e+00
        24       1       2       0       0       0       0       0
-1.000e+00 0.000e+00 0.000e+00 0.000e+00 0.000e+00 0.000e+00 0.000e+00 1.110e+00
 1.000e+00 0.000e+00 0.000e+00 0.000e+00 0.000e+00 0.000e+00 0.000e+00 1.110e+00
        25       1       2       0       0       0       0       0
-1.000e+00 0.000e+00 0.000e+00 0.000e+00 0.000e+00 0.000e+00 0.000e+00 1.110e+00
 1.000e+00 0.000e+00 0.000e+00 0.000e+00 0.000e+00 0.000e+00 0.000e+00 1.110e+00
        26       1       2       0       0       0       0       0
-1.000e+00 0.000e+00 0.000e+00 0.000e+00 0.000e+00 0.000e+00 0.000e+00 1.110e+00
 1.000e+00 0.000e+00 0.000e+00 0.000e+00 0.000e+00 0.000e+00 0.000e+00 1.110e+00
        27       1       2       0       0       0       0       0
-1.000e+00 0.000e+00 0.000e+00 0.000e+00 0.000e+00 0.000e+00 0.000e+00 1.110e+00
 1.000e+00 0.000e+00 0.000e+00 0.000e+00 0.000e+00 0.000e+00 0.000e+00 1.110e+00
$ ... 9 like lines cut
*END
