*KEYWORD
*TITLE
PBA Shield Can - formstrain verification
*NODE
         1        0.000000        0.000000        0.000000
         2        1.000000        0.000000        0.000000
         3        2.000000        0.000000        0.000000
         4        3.000000        0.000000        0.000000
         5        4.000000        0.000000        0.000000
         6        5.000000        0.000000        0.000000
         7        6.000000        0.000000        0.000000
         8        7.000000        0.000000        0.000000
         9        8.000000        0.000000        0.000000
        10        9.000000        0.000000        0.000000
        11       10.000000        0.000000        0.000000
        12       11.000000        0.000000        0.000000
        13       12.000000        0.000000        0.000000
        14       13.000000        0.000000        0.000000
        15       14.000000        0.000000        0.000000
        16       15.000000        0.000000        0.000000
        17       16.000000        0.000000        0.000000
        18       17.000000        0.000000        0.000000
        19       18.000000        0.000000        0.000000
        20       19.000000        0.000000        0.000000
$ ... 526 like lines cut
*ELEMENT_SHELL
       1       1       1       2      23      22
       2       1       2       3      24      23
       3       1       3       4      25      24
       4       1       4       5      26      25
       5       1       5       6      27      26
       6       1       6       7      28      27
       7       1       7       8      29      28
       8       1       8       9      30      29
       9       1       9      10      31      30
      10       1      10      11      32      31
      11       1      11      12      33      32
      12       1      12      13      34      33
      13       1      13      14      35      34
      14       1      14      15      36      35
      15       1      15      16      37      36
      16       1      16      17      38      37
      17       1      17      18      39      38
      18       1      18      19      40      39
      19       1      19      20      41      40
      20       1      20      21      42      41
$ ... 490 like lines cut
*PART
Shield Can
         1         1         1
*SECTION_SHELL
$#   secid    elform      shrf       nip     propt   qr/irid     icomp     setyp
         1         2       1.0         2       1.0         0         0         1
$#      t1        t2        t3        t4      nloc     marea      idof    edgset
  0.200000  0.200000  0.200000  0.200000       0.0       0.0       0.0       0.0
*MAT_PIECEWISE_LINEAR_PLASTICITY
$#     mid        ro         e        pr      sigy      etan      fail      tdel
         1  7.93E-09    193000      0.29       215       0.0       0.0       0.0
$#       c         p      lcss      lcsr        vp       lcf
       0.0       0.0         0         0       0.0         0
$#    eps1      eps2      eps3      eps4      eps5      eps6      eps7      eps8
       0.0       0.0       0.0       0.0       0.0       0.0       0.0       0.0
$#     es1       es2       es3       es4       es5       es6       es7       es8
       0.0       0.0       0.0       0.0       0.0       0.0       0.0       0.0
*INITIAL_STRESS_SHELL
$#    eid  nplane  nthick   nhisv  ntensr   large  nthint  nthhsv
         1       1       2       0       0       0       0       0
$#     T     sigxx     sigyy     sigzz     sigxy     sigyz     sigzx       eps
-1.000e+00 0.000e+00 0.000e+00 0.000e+00 0.000e+00 0.000e+00 0.000e+00 2.210e-01
 1.000e+00 0.000e+00 0.000e+00 0.000e+00 0.000e+00 0.000e+00 0.000e+00 2.210e-01
         2       1       2       0       0       0       0       0
-1.000e+00 0.000e+00 0.000e+00 0.000e+00 0.000e+00 0.000e+00 0.000e+00 2.210e-01
 1.000e+00 0.000e+00 0.000e+00 0.000e+00 0.000e+00 0.000e+00 0.000e+00 2.210e-01
         3       1       2       0       0       0       0       0
-1.000e+00 0.000e+00 0.000e+00 0.000e+00 0.000e+00 0.000e+00 0.000e+00 2.210e-01
 1.000e+00 0.000e+00 0.000e+00 0.000e+00 0.000e+00 0.000e+00 0.000e+00 2.210e-01
         4       1       2       0       0       0       0       0
-1.000e+00 0.000e+00 0.000e+00 0.000e+00 0.000e+00 0.000e+00 0.000e+00 2.210e-01
 1.000e+00 0.000e+00 0.000e+00 0.000e+00 0.000e+00 0.000e+00 0.000e+00 2.210e-01
         5       1       2       0       0       0       0       0
-1.000e+00 0.000e+00 0.000e+00 0.000e+00 0.000e+00 0.000e+00 0.000e+00 2.210e-01
 1.000e+00 0.000e+00 0.000e+00 0.000e+00 0.000e+00 0.000e+00 0.000e+00 2.210e-01
         6       1       2       0       0       0       0       0
-1.000e+00 0.000e+00 0.000e+00 0.000e+00 0.000e+00 0.000e+00 0.000e+00 2.210e-01
 1.000e+00 0.000e+00 0.000e+00 0.000e+00 0.000e+00 0.000e+00 0.000e+00 2.210e-01
         7       1       2       0       0       0       0       0
-1.000e+00 0.000e+00 0.000e+00 0.000e+00 0.000e+00 0.000e+00 0.000e+00 2.210e-01
 1.000e+00 0.000e+00 0.000e+00 0.000e+00 0.000e+00 0.000e+00 0.000e+00 2.210e-01
$ ... 435 like lines cut
*END
