*KEYWORD
3-Point Bending - Steel Beam
$--- Termination / Timestep ------------------------------------
*CONTROL_TERMINATION
$  ENDTIM    ENDCYC     DTMIN    ENDENG    ENDMAS
     1.0         0       0.0       0.0       0.0
*CONTROL_TIMESTEP
$   DTINIT    TSSFAC
       0.0  0.900000                           0.0
$--- Load curve (ramp 0->1, scaled to -2mm) --------------------
*DEFINE_CURVE
$    LCID      SIDR       SFA       SFO      OFFA      OFFO    DATTYP
         1         0       1.0      -2.0       0.0       0.0         0
$                A1                  O1
                 0.0                 0.0
                 1.0                 1.0
$--- Material --------------------------------------------------
*MAT_ELASTIC
$      MID       RHO         E        PR        DA        DB
         1  7.85E-09  2.10E+05      0.30       0.0       0.0
$--- Section ---------------------------------------------------
*SECTION_SOLID
$    SECID    ELFORM       AET
         1         1         0
$--- Part -------------------------------------------------------
*PART
Beam
$      PID     SECID       MID     EOSID      HGID      GRAV    ADPOPT      TMID
         1         1         1         0         0         0         0         0
$--- Boundary: Y-fixed at supports (rollers at x=0 and x=L) ----
*BOUNDARY_SPC_SET
$    NSID      CID    DOFX    DOFY    DOFZ   DOFRX   DOFRY   DOFRZ
         1         0       0       1       0       0       0       0
*SET_NODE_LIST
$       SID
         1
         1        21        64        84       127       147

$--- Boundary: X-fixed at left support (prevent rigid body X) --
*BOUNDARY_SPC_SET
$    NSID      CID    DOFX    DOFY    DOFZ   DOFRX   DOFRY   DOFRZ
         2         0       1       0       0       0       0       0
*SET_NODE_LIST
$       SID
         2
         1        64       127
$--- Boundary: Z-fixed at z=0 face (prevent rigid body Z) ------
*BOUNDARY_SPC_SET
$    NSID      CID    DOFX    DOFY    DOFZ   DOFRX   DOFRY   DOFRZ
         3         0       0       0       1       0       0       0
*SET_NODE_LIST
$       SID
         3
         1        22        43         2        23        44         3        24
        45         4        25        46         5        26        47         6
        27        48         7        28        49         8        29        50
         9        30        51        10        31        52        11        32
        53        12        33        54        13        34        55        14
        35        56        15        36        57        16        37        58
        17        38        59        18        39        60        19        40
        61        20        41        62        21        42        63
$--- Prescribed displacement at center top (x=50, y=5mm) --------
*BOUNDARY_PRESCRIBED_MOTION_SET
$    NSID       DOF       VAD      LCID        SF       VID     DEATH      BIRTH
         4         2         2         1       1.0         0 1.000E+28       0.0
*SET_NODE_LIST
$       SID
         4
        53       116       179
$--- Nodes -------------------------------------------------------
*NODE
       1        0.000000        0.000000        0.000000
       2        5.000000        0.000000        0.000000
       3       10.000000        0.000000        0.000000
       4       15.000000        0.000000        0.000000
       5       20.000000        0.000000        0.000000
       6       25.000000        0.000000        0.000000
       7       30.000000        0.000000        0.000000
       8       35.000000        0.000000        0.000000
       9       40.000000        0.000000        0.000000
      10       45.000000        0.000000        0.000000
      11       50.000000        0.000000        0.000000
      12       55.000000        0.000000        0.000000
      13       60.000000        0.000000        0.000000
      14       65.000000        0.000000        0.000000
      15       70.000000        0.000000        0.000000
      16       75.000000        0.000000        0.000000
      17       80.000000        0.000000        0.000000
      18       85.000000        0.000000        0.000000
      19       90.000000        0.000000        0.000000
      20       95.000000        0.000000        0.000000
$ ... 169 like lines cut

$--- Elements ----------------------------------------------------
*ELEMENT_SOLID
       1       1       1       2      23      22      64      65      86      85
       2       1       2       3      24      23      65      66      87      86
       3       1       3       4      25      24      66      67      88      87
       4       1       4       5      26      25      67      68      89      88
       5       1       5       6      27      26      68      69      90      89
       6       1       6       7      28      27      69      70      91      90
       7       1       7       8      29      28      70      71      92      91
       8       1       8       9      30      29      71      72      93      92
       9       1       9      10      31      30      72      73      94      93
      10       1      10      11      32      31      73      74      95      94
      11       1      11      12      33      32      74      75      96      95
      12       1      12      13      34      33      75      76      97      96
      13       1      13      14      35      34      76      77      98      97
      14       1      14      15      36      35      77      78      99      98
      15       1      15      16      37      36      78      79     100      99
      16       1      16      17      38      37      79      80     101     100
      17       1      17      18      39      38      80      81     102     101
      18       1      18      19      40      39      81      82     103     102
      19       1      19      20      41      40      82      83     104     103
      20       1      20      21      42      41      83      84     105     104
$ ... 60 like lines cut

*CONTROL_IMPLICIT_GENERAL
$   IMFLAG       DT0    IMFORM      NSBS       IGS    CNSTN      FORM    ZERO_V
         1  0.001000         2         1         2         0         0         0
*CONTROL_IMPLICIT_DYNAMICS
$    IMASS     GAMMA      BETA    TDYBIR    TDYDTH    TDYBUR     IRATE
         0  0.500000  0.250000       0.0 1.000E+28 1.000E+28         0
*CONTROL_IMPLICIT_SOLUTION
$   NSOLVR    ILIMIT    MAXREF     DCTOL     ECTOL     RCTOL     LSTOL    ABSTOL
        12        15        20  0.001000  0.010000 1.000E+10  0.950000 1.000E-10
*CONTROL_IMPLICIT_AUTO
$    IAUTO    ITEOPT    ITEWIN     DTMIN     DTMAX     DTEXP     KFAIL    KCYCLE
         1        11         5-1.000E-04 5.000E-03       0.0         0         0
*CONTROL_IMPLICIT_SOLVER
$    LSOLVR    LPRINT     NEGEV     ORDER      DRCM    DRCPRM   AUTOSPC   AUTOTOL
         7         0         2         0         4       0.0         1       0.0
*END
