*KEYWORD
$
$ Box mesh: 10x10x10 mm, 5x5x5 elements
$
*MAT_ELASTIC
$#     mid        ro         e        pr
         1  7.85e-09   2.1e+05       0.3
*SECTION_SOLID
$#   secid    elform
         1         1
*PART
BOX
$#     pid     secid       mid
         1         1         1
*NODE
$#   nid               x               y               z
       1 0.000000000e+00 0.000000000e+00 0.000000000e+00
       2 2.000000000e+00 0.000000000e+00 0.000000000e+00
       3 4.000000000e+00 0.000000000e+00 0.000000000e+00
       4 6.000000000e+00 0.000000000e+00 0.000000000e+00
       5 8.000000000e+00 0.000000000e+00 0.000000000e+00
       6 1.000000000e+01 0.000000000e+00 0.000000000e+00
       7 0.000000000e+00 2.000000000e+00 0.000000000e+00
       8 2.000000000e+00 2.000000000e+00 0.000000000e+00
       9 4.000000000e+00 2.000000000e+00 0.000000000e+00
      10 6.000000000e+00 2.000000000e+00 0.000000000e+00
      11 8.000000000e+00 2.000000000e+00 0.000000000e+00
      12 1.000000000e+01 2.000000000e+00 0.000000000e+00
      13 0.000000000e+00 4.000000000e+00 0.000000000e+00
      14 2.000000000e+00 4.000000000e+00 0.000000000e+00
      15 4.000000000e+00 4.000000000e+00 0.000000000e+00
      16 6.000000000e+00 4.000000000e+00 0.000000000e+00
      17 8.000000000e+00 4.000000000e+00 0.000000000e+00
      18 1.000000000e+01 4.000000000e+00 0.000000000e+00
      19 0.000000000e+00 6.000000000e+00 0.000000000e+00
      20 2.000000000e+00 6.000000000e+00 0.000000000e+00
$ ... 196 like lines cut
*ELEMENT_SOLID
$#   eid     pid      n1      n2      n3      n4      n5      n6      n7      n8
       1       1       1       2       8       7      37      38      44      43
       2       1       2       3       9       8      38      39      45      44
       3       1       3       4      10       9      39      40      46      45
       4       1       4       5      11      10      40      41      47      46
       5       1       5       6      12      11      41      42      48      47
       6       1       7       8      14      13      43      44      50      49
       7       1       8       9      15      14      44      45      51      50
       8       1       9      10      16      15      45      46      52      51
       9       1      10      11      17      16      46      47      53      52
      10       1      11      12      18      17      47      48      54      53
      11       1      13      14      20      19      49      50      56      55
      12       1      14      15      21      20      50      51      57      56
      13       1      15      16      22      21      51      52      58      57
      14       1      16      17      23      22      52      53      59      58
      15       1      17      18      24      23      53      54      60      59
      16       1      19      20      26      25      55      56      62      61
      17       1      20      21      27      26      56      57      63      62
      18       1      21      22      28      27      57      58      64      63
      19       1      22      23      29      28      58      59      65      64
      20       1      23      24      30      29      59      60      66      65
$ ... 105 like lines cut
*END
