*KEYWORD
$
$ LS-DYNA Initial Stress File (dynain)
$ Generated by KooRemapper
$ Date: 2026-01-11 15:20:45
$
$ Reference mesh: examples\foldable_display\foldable_flat.k
$ Deformed mesh: examples\foldable_display\foldable_bent.k
$ Strain type: Engineering
$ Large deformation: No
$
*INITIAL_STRESS_SOLID
$#    eid    nint   nhisv   large     ics   ncomp
         1       1       0       0       0       0
$#  sigxx     sigyy     sigzz     sigxy     sigyz     sigxz
-4.484e-05-2.690e-05-4.484e-05 0.000e+00 0.000e+00 0.000e+00
$#    eps
 0.000e+00
*INITIAL_STRESS_SOLID
$#    eid    nint   nhisv   large     ics   ncomp
         2       1       0       0       0       0
$#  sigxx     sigyy     sigzz     sigxy     sigyz     sigxz
-4.484e-05-2.690e-05-4.484e-05-1.991e-21 0.000e+00 0.000e+00
$#    eps
 0.000e+00
*INITIAL_STRESS_SOLID
$#    eid    nint   nhisv   large     ics   ncomp
         3       1       0       0       0       0
$#  sigxx     sigyy     sigzz     sigxy     sigyz     sigxz
-4.484e-05-4.484e-05-2.690e-05 0.000e+00 0.000e+00 3.186e-20
$#    eps
 0.000e+00
*INITIAL_STRESS_SOLID
$#    eid    nint   nhisv   large     ics   ncomp
         4       1       0       0       0       0
$#  sigxx     sigyy     sigzz     sigxy     sigyz     sigxz
-4.484e-05-4.484e-05-2.690e-05 0.000e+00 0.000e+00 0.000e+00
$#    eps
 0.000e+00
*INITIAL_STRESS_SOLID
$#    eid    nint   nhisv   large     ics   ncomp
         5       1       0       0       0       0
$#  sigxx     sigyy     sigzz     sigxy     sigyz     sigxz
-3.139e-05-1.345e-05-1.345e-05 0.000e+00 0.000e+00-2.549e-19
$#    eps
 0.000e+00
*INITIAL_STRESS_SOLID
$#    eid    nint   nhisv   large     ics   ncomp
         6       1       0       0       0       0
$#  sigxx     sigyy     sigzz     sigxy     sigyz     sigxz
-4.484e-05-2.690e-05-4.484e-05 3.982e-21 0.000e+00-3.186e-20
$#    eps
 0.000e+00
*INITIAL_STRESS_SOLID
$#    eid    nint   nhisv   large     ics   ncomp
         7       1       0       0       0       0
$#  sigxx     sigyy     sigzz     sigxy     sigyz     sigxz
-4.484e-05-4.484e-05-2.690e-05 0.000e+00 0.000e+00 6.372e-20
$#    eps
 0.000e+00
*INITIAL_STRESS_SOLID
$#    eid    nint   nhisv   large     ics   ncomp
         8       1       0       0       0       0
$#  sigxx     sigyy     sigzz     sigxy     sigyz     sigxz
-4.484e-05-4.484e-05-2.690e-05 0.000e+00 0.000e+00 0.000e+00
$#    eps
 0.000e+00
*INITIAL_STRESS_SOLID
$#    eid    nint   nhisv   large     ics   ncomp
         9       1       0       0       0       0
$#  sigxx     sigyy     sigzz     sigxy     sigyz     sigxz
-1.345e-05-1.345e-05-3.139e-05 0.000e+00 0.000e+00-1.274e-19
$#    eps
 0.000e+00
*INITIAL_STRESS_SOLID
$#    eid    nint   nhisv   large     ics   ncomp
        10       1       0       0       0       0
$#  sigxx     sigyy     sigzz     sigxy     sigyz     sigxz
-4.484e-05-4.484e-05-2.690e-05 0.000e+00 0.000e+00 6.372e-20
$#    eps
 0.000e+00
*INITIAL_STRESS_SOLID
$#    eid    nint   nhisv   large     ics   ncomp
        11       1       0       0       0       0
$#  sigxx     sigyy     sigzz     sigxy     sigyz     sigxz
-4.484e-05-2.690e-05-4.484e-05-7.964e-21 0.000e+00-6.372e-20
$#    eps
 0.000e+00
*INITIAL_STRESS_SOLID
$#    eid    nint   nhisv   large     ics   ncomp
        12       1       0       0       0       0
$#  sigxx     sigyy     sigzz     sigxy     sigyz     sigxz
-1.345e-05-1.345e-05-3.139e-05-1.593e-20 0.000e+00 1.274e-19
$#    eps
 0.000e+00
*INITIAL_STRESS_SOLID
$#    eid    nint   nhisv   large     ics   ncomp
        13       1       0       0       0       0
$#  sigxx     sigyy     sigzz     sigxy     sigyz     sigxz
 1.841e+09 7.208e+08 5.614e+08-1.025e-04-2.002e-07-2.412e+09
$#    eps
 0.000e+00
*INITIAL_STRESS_SOLID
$#    eid    nint   nhisv   large     ics   ncomp
        14       1       0       0       0       0
$#  sigxx     sigyy     sigzz     sigxy     sigyz     sigxz
 4.311e+10 1.779e+10 1.620e+10-3.235e-04-1.498e-05 1.699e+09
$#    eps
 0.000e+00
*INITIAL_STRESS_SOLID
$#    eid    nint   nhisv   large     ics   ncomp
        15       1       0       0       0       0
$#  sigxx     sigyy     sigzz     sigxy     sigyz     sigxz
 3.251e+10 1.162e+10 6.240e+09 3.207e-04 3.011e-05 3.372e+09
$#    eps
 0.000e+00
*INITIAL_STRESS_SOLID
$#    eid    nint   nhisv   large     ics   ncomp
        16       1       0       0       0       0
$#  sigxx     sigyy     sigzz     sigxy     sigyz     sigxz
 1.502e+10 1.450e+09-1.019e+10-2.136e-04-4.358e-05 4.991e+09
$#    eps
 0.000e+00
*INITIAL_STRESS_SOLID
$#    eid    nint   nhisv   large     ics   ncomp
        17       1       0       0       0       0
$#  sigxx     sigyy     sigzz     sigxy     sigyz     sigxz
-9.065e+09-1.257e+10-3.283e+10-1.025e-04 1.001e-07 6.532e+09
$#    eps
 0.000e+00
*INITIAL_STRESS_SOLID
$#    eid    nint   nhisv   large     ics   ncomp
        18       1       0       0       0       0
$#  sigxx     sigyy     sigzz     sigxy     sigyz     sigxz
-3.938e+10-3.021e+10-6.132e+10 1.991e-04 7.023e-05 7.970e+09
$#    eps
 0.000e+00
*INITIAL_STRESS_SOLID
$#    eid    nint   nhisv   large     ics   ncomp
        19       1       0       0       0       0
$#  sigxx     sigyy     sigzz     sigxy     sigyz     sigxz
-7.544e+10-5.120e+10-9.521e+10-1.896e-04-8.219e-05 9.282e+09
$#    eps
 0.000e+00
*INITIAL_STRESS_SOLID
$#    eid    nint   nhisv   large     ics   ncomp
        20       1       0       0       0       0
$#  sigxx     sigyy     sigzz     sigxy     sigyz     sigxz
-1.167e+11-7.520e+10-1.340e+11 1.786e-04 9.046e-05 1.045e+10
$#    eps
 0.000e+00
*INITIAL_STRESS_SOLID
$#    eid    nint   nhisv   large     ics   ncomp
        21       1       0       0       0       0
$#  sigxx     sigyy     sigzz     sigxy     sigyz     sigxz
-1.625e+11-1.018e+11-1.770e+11-6.402e-05-1.009e-04 1.145e+10
$#    eps
 0.000e+00
*INITIAL_STRESS_SOLID
$#    eid    nint   nhisv   large     ics   ncomp
        22       1       0       0       0       0
$#  sigxx     sigyy     sigzz     sigxy     sigyz     sigxz
-2.120e+11-1.307e+11-2.236e+11-1.025e-04-8.006e-07 1.227e+10
$#    eps
 0.000e+00
*INITIAL_STRESS_SOLID
$#    eid    nint   nhisv   large     ics   ncomp
        23       1       0       0       0       0
$#  sigxx     sigyy     sigzz     sigxy     sigyz     sigxz
-2.646e+11-1.613e+11-2.730e+11 1.394e-04 1.136e-04 1.290e+10
$#    eps
 0.000e+00
*INITIAL_STRESS_SOLID
$#    eid    nint   nhisv   large     ics   ncomp
        24       1       0       0       0       0
$#  sigxx     sigyy     sigzz     sigxy     sigyz     sigxz
-3.194e+11-1.932e+11-3.245e+11-2.274e-04-1.158e-04 1.332e+10
$#    eps
 0.000e+00
*INITIAL_STRESS_SOLID
$#    eid    nint   nhisv   large     ics   ncomp
        25       1       0       0       0       0
$#  sigxx     sigyy     sigzz     sigxy     sigyz     sigxz
-3.756e+11-2.258e+11-3.773e+11 1.100e-04 1.176e-04 1.353e+10
$#    eps
 0.000e+00
*INITIAL_STRESS_SOLID
$#    eid    nint   nhisv   large     ics   ncomp
        26       1       0       0       0       0
$#  sigxx     sigyy     sigzz     sigxy     sigyz     sigxz
-4.321e+11-2.588e+11-4.304e+11 1.025e-04 0.000e+00 1.353e+10
$#    eps
 0.000e+00
*INITIAL_STRESS_SOLID
$#    eid    nint   nhisv   large     ics   ncomp
        27       1       0       0       0       0
$#  sigxx     sigyy     sigzz     sigxy     sigyz     sigxz
-4.883e+11-2.914e+11-4.832e+11-1.826e-04-1.174e-04 1.332e+10
$#    eps
 0.000e+00
*INITIAL_STRESS_SOLID
$#    eid    nint   nhisv   large     ics   ncomp
        28       1       0       0       0       0
$#  sigxx     sigyy     sigzz     sigxy     sigyz     sigxz
-5.431e+11-3.233e+11-5.347e+11 6.556e-05 1.136e-04 1.290e+10
$#    eps
 0.000e+00
*INITIAL_STRESS_SOLID
$#    eid    nint   nhisv   large     ics   ncomp
        29       1       0       0       0       0
$#  sigxx     sigyy     sigzz     sigxy     sigyz     sigxz
-5.957e+11-3.539e+11-5.841e+11-1.025e-04 3.203e-06 1.227e+10
$#    eps
 0.000e+00
*INITIAL_STRESS_SOLID
$#    eid    nint   nhisv   large     ics   ncomp
        30       1       0       0       0       0
$#  sigxx     sigyy     sigzz     sigxy     sigyz     sigxz
-6.452e+11-3.828e+11-6.307e+11 6.402e-05-1.041e-04 1.145e+10
$#    eps
 0.000e+00
*INITIAL_STRESS_SOLID
$#    eid    nint   nhisv   large     ics   ncomp
        31       1       0       0       0       0
$#  sigxx     sigyy     sigzz     sigxy     sigyz     sigxz
-6.910e+11-4.094e+11-6.737e+11 2.632e-05 9.527e-05 1.045e+10
$#    eps
 0.000e+00
*INITIAL_STRESS_SOLID
$#    eid    nint   nhisv   large     ics   ncomp
        32       1       0       0       0       0
$#  sigxx     sigyy     sigzz     sigxy     sigyz     sigxz
-7.323e+11-4.334e+11-7.125e+11-1.538e-05-8.499e-05 9.282e+09
$#    eps
 0.000e+00
*INITIAL_STRESS_SOLID
$#    eid    nint   nhisv   large     ics   ncomp
        33       1       0       0       0       0
$#  sigxx     sigyy     sigzz     sigxy     sigyz     sigxz
-7.683e+11-4.544e+11-7.464e+11 1.025e-04 0.000e+00 7.970e+09
$#    eps
 0.000e+00
*INITIAL_STRESS_SOLID
$#    eid    nint   nhisv   large     ics   ncomp
        34       1       0       0       0       0
$#  sigxx     sigyy     sigzz     sigxy     sigyz     sigxz
-7.986e+11-4.720e+11-7.749e+11-2.072e-04 5.756e-05 6.532e+09
$#    eps
 0.000e+00
*INITIAL_STRESS_SOLID
$#    eid    nint   nhisv   large     ics   ncomp
        35       1       0       0       0       0
$#  sigxx     sigyy     sigzz     sigxy     sigyz     sigxz
-8.227e+11-4.861e+11-7.975e+11 8.611e-06-5.039e-05 4.991e+09
$#    eps
 0.000e+00
*INITIAL_STRESS_SOLID
$#    eid    nint   nhisv   large     ics   ncomp
        36       1       0       0       0       0
$#  sigxx     sigyy     sigzz     sigxy     sigyz     sigxz
-8.402e+11-4.962e+11-8.139e+11 2.050e-04 0.000e+00 3.372e+09
$#    eps
 0.000e+00
*INITIAL_STRESS_SOLID
$#    eid    nint   nhisv   large     ics   ncomp
        37       1       0       0       0       0
$#  sigxx     sigyy     sigzz     sigxy     sigyz     sigxz
-8.508e+11-5.024e+11-8.239e+11-3.235e-04 2.138e-05 1.699e+09
$#    eps
 0.000e+00
*INITIAL_STRESS_SOLID
$#    eid    nint   nhisv   large     ics   ncomp
        38       1       0       0       0       0
$#  sigxx     sigyy     sigzz     sigxy     sigyz     sigxz
-8.095e+11-4.853e+11-8.083e+11-2.057e-04 6.562e-06-2.412e+09
$#    eps
 0.000e+00
*INITIAL_STRESS_SOLID
$#    eid    nint   nhisv   large     ics   ncomp
        39       1       0       0       0       0
$#  sigxx     sigyy     sigzz     sigxy     sigyz     sigxz
-8.077e+11-4.846e+11-8.077e+11-1.025e-04 0.000e+00 8.608e-04
$#    eps
 0.000e+00
*INITIAL_STRESS_SOLID
$#    eid    nint   nhisv   large     ics   ncomp
        40       1       0       0       0       0
$#  sigxx     sigyy     sigzz     sigxy     sigyz     sigxz
-8.077e+11-4.846e+11-8.077e+11-1.537e-04 0.000e+00-1.291e-03
$#    eps
 0.000e+00
*INITIAL_STRESS_SOLID
$#    eid    nint   nhisv   large     ics   ncomp
        41       1       0       0       0       0
$#  sigxx     sigyy     sigzz     sigxy     sigyz     sigxz
-8.077e+11-4.846e+11-8.077e+11 1.537e-04 0.000e+00 1.291e-03
$#    eps
 0.000e+00
*INITIAL_STRESS_SOLID
$#    eid    nint   nhisv   large     ics   ncomp
        42       1       0       0       0       0
$#  sigxx     sigyy     sigzz     sigxy     sigyz     sigxz
-8.077e+11-4.846e+11-8.077e+11-1.025e-04 0.000e+00-2.583e-03
$#    eps
 0.000e+00
*INITIAL_STRESS_SOLID
$#    eid    nint   nhisv   large     ics   ncomp
        43       1       0       0       0       0
$#  sigxx     sigyy     sigzz     sigxy     sigyz     sigxz
-8.077e+11-4.846e+11-8.077e+11 5.124e-05 0.000e+00 4.304e-04
$#    eps
 0.000e+00
*INITIAL_STRESS_SOLID
$#    eid    nint   nhisv   large     ics   ncomp
        44       1       0       0       0       0
$#  sigxx     sigyy     sigzz     sigxy     sigyz     sigxz
-8.077e+11-4.846e+11-8.077e+11 5.124e-05 0.000e+00 2.152e-03
$#    eps
 0.000e+00
*INITIAL_STRESS_SOLID
$#    eid    nint   nhisv   large     ics   ncomp
        45       1       0       0       0       0
$#  sigxx     sigyy     sigzz     sigxy     sigyz     sigxz
-8.077e+11-4.846e+11-8.077e+11-1.025e-04 0.000e+00-8.608e-04
$#    eps
 0.000e+00
*INITIAL_STRESS_SOLID
$#    eid    nint   nhisv   large     ics   ncomp
        46       1       0       0       0       0
$#  sigxx     sigyy     sigzz     sigxy     sigyz     sigxz
-8.077e+11-4.846e+11-8.077e+11-2.562e-05 0.000e+00 2.152e-04
$#    eps
 0.000e+00
*INITIAL_STRESS_SOLID
$#    eid    nint   nhisv   large     ics   ncomp
        47       1       0       0       0       0
$#  sigxx     sigyy     sigzz     sigxy     sigyz     sigxz
-8.077e+11-4.846e+11-8.077e+11 2.050e-04 0.000e+00 1.722e-03
$#    eps
 0.000e+00
*INITIAL_STRESS_SOLID
$#    eid    nint   nhisv   large     ics   ncomp
        48       1       0       0       0       0
$#  sigxx     sigyy     sigzz     sigxy     sigyz     sigxz
-8.077e+11-4.846e+11-8.077e+11 0.000e+00 0.000e+00 3.443e-03
$#    eps
 0.000e+00
*INITIAL_STRESS_SOLID
$#    eid    nint   nhisv   large     ics   ncomp
        49       1       0       0       0       0
$#  sigxx     sigyy     sigzz     sigxy     sigyz     sigxz
-8.077e+11-4.846e+11-8.077e+11-1.281e-05 0.000e+00 3.336e-03
$#    eps
 0.000e+00
*INITIAL_STRESS_SOLID
$#    eid    nint   nhisv   large     ics   ncomp
        50       1       0       0       0       0
$#  sigxx     sigyy     sigzz     sigxy     sigyz     sigxz
-8.077e+11-4.846e+11-8.077e+11-2.050e-04 0.000e+00-1.722e-03
$#    eps
 0.000e+00
*INITIAL_STRESS_SOLID
$#    eid    nint   nhisv   large     ics   ncomp
        51       1       0       0       0       0
$#  sigxx     sigyy     sigzz     sigxy     sigyz     sigxz
-5.829e-05-5.829e-05-5.829e-05 0.000e+00 0.000e+00 0.000e+00
$#    eps
 0.000e+00
*INITIAL_STRESS_SOLID
$#    eid    nint   nhisv   large     ics   ncomp
        52       1       0       0       0       0
$#  sigxx     sigyy     sigzz     sigxy     sigyz     sigxz
-5.829e-05-5.829e-05-5.829e-05 0.000e+00 0.000e+00-6.372e-20
$#    eps
 0.000e+00
*INITIAL_STRESS_SOLID
$#    eid    nint   nhisv   large     ics   ncomp
        53       1       0       0       0       0
$#  sigxx     sigyy     sigzz     sigxy     sigyz     sigxz
-7.174e-05-7.174e-05-8.967e-05 0.000e+00-1.274e-19-3.186e-20
$#    eps
 0.000e+00
*INITIAL_STRESS_SOLID
$#    eid    nint   nhisv   large     ics   ncomp
        54       1       0       0       0       0
$#  sigxx     sigyy     sigzz     sigxy     sigyz     sigxz
-7.174e-05-7.174e-05-8.967e-05 0.000e+00-1.274e-19 0.000e+00
$#    eps
 0.000e+00
*INITIAL_STRESS_SOLID
$#    eid    nint   nhisv   large     ics   ncomp
        55       1       0       0       0       0
$#  sigxx     sigyy     sigzz     sigxy     sigyz     sigxz
 1.345e-05 4.932e-05-4.484e-06-3.982e-21-1.274e-19 1.274e-19
$#    eps
 0.000e+00
*INITIAL_STRESS_SOLID
$#    eid    nint   nhisv   large     ics   ncomp
        56       1       0       0       0       0
$#  sigxx     sigyy     sigzz     sigxy     sigyz     sigxz
 0.000e+00 0.000e+00 0.000e+00-3.982e-21 0.000e+00 0.000e+00
$#    eps
 0.000e+00
*INITIAL_STRESS_SOLID
$#    eid    nint   nhisv   large     ics   ncomp
        57       1       0       0       0       0
$#  sigxx     sigyy     sigzz     sigxy     sigyz     sigxz
-7.174e-05-7.174e-05-8.967e-05 0.000e+00-1.274e-19-6.372e-20
$#    eps
 0.000e+00
*INITIAL_STRESS_SOLID
$#    eid    nint   nhisv   large     ics   ncomp
        58       1       0       0       0       0
$#  sigxx     sigyy     sigzz     sigxy     sigyz     sigxz
-7.174e-05-7.174e-05-8.967e-05 0.000e+00-1.274e-19 0.000e+00
$#    eps
 0.000e+00
*INITIAL_STRESS_SOLID
$#    eid    nint   nhisv   large     ics   ncomp
        59       1       0       0       0       0
$#  sigxx     sigyy     sigzz     sigxy     sigyz     sigxz
 0.000e+00 0.000e+00 0.000e+00 0.000e+00 0.000e+00 0.000e+00
$#    eps
 0.000e+00
*INITIAL_STRESS_SOLID
$#    eid    nint   nhisv   large     ics   ncomp
        60       1       0       0       0       0
$#  sigxx     sigyy     sigzz     sigxy     sigyz     sigxz
-7.174e-05-7.174e-05-8.967e-05 0.000e+00-1.274e-19-6.372e-20
$#    eps
 0.000e+00
*INITIAL_STRESS_SOLID
$#    eid    nint   nhisv   large     ics   ncomp
        61       1       0       0       0       0
$#  sigxx     sigyy     sigzz     sigxy     sigyz     sigxz
-5.829e-05-5.829e-05-5.829e-05 0.000e+00 0.000e+00 6.372e-20
$#    eps
 0.000e+00
*INITIAL_STRESS_SOLID
$#    eid    nint   nhisv   large     ics   ncomp
        62       1       0       0       0       0
$#  sigxx     sigyy     sigzz     sigxy     sigyz     sigxz
 0.000e+00 0.000e+00 0.000e+00 1.593e-20 0.000e+00 1.274e-19
$#    eps
 0.000e+00
*INITIAL_STRESS_SOLID
$#    eid    nint   nhisv   large     ics   ncomp
        63       1       0       0       0       0
$#  sigxx     sigyy     sigzz     sigxy     sigyz     sigxz
 1.841e+09 7.208e+08 5.614e+08-1.025e-04-2.002e-07-2.412e+09
$#    eps
 0.000e+00
*INITIAL_STRESS_SOLID
$#    eid    nint   nhisv   large     ics   ncomp
        64       1       0       0       0       0
$#  sigxx     sigyy     sigzz     sigxy     sigyz     sigxz
 4.311e+10 1.779e+10 1.620e+10-3.235e-04-1.498e-05 1.699e+09
$#    eps
 0.000e+00
*INITIAL_STRESS_SOLID
$#    eid    nint   nhisv   large     ics   ncomp
        65       1       0       0       0       0
$#  sigxx     sigyy     sigzz     sigxy     sigyz     sigxz
 3.251e+10 1.162e+10 6.240e+09 3.207e-04 3.011e-05 3.372e+09
$#    eps
 0.000e+00
*INITIAL_STRESS_SOLID
$#    eid    nint   nhisv   large     ics   ncomp
        66       1       0       0       0       0
$#  sigxx     sigyy     sigzz     sigxy     sigyz     sigxz
 1.502e+10 1.450e+09-1.019e+10-2.136e-04-4.358e-05 4.991e+09
$#    eps
 0.000e+00
*INITIAL_STRESS_SOLID
$#    eid    nint   nhisv   large     ics   ncomp
        67       1       0       0       0       0
$#  sigxx     sigyy     sigzz     sigxy     sigyz     sigxz
-9.065e+09-1.257e+10-3.283e+10-1.025e-04 1.001e-07 6.532e+09
$#    eps
 0.000e+00
*INITIAL_STRESS_SOLID
$#    eid    nint   nhisv   large     ics   ncomp
        68       1       0       0       0       0
$#  sigxx     sigyy     sigzz     sigxy     sigyz     sigxz
-3.938e+10-3.021e+10-6.132e+10 1.991e-04 7.023e-05 7.970e+09
$#    eps
 0.000e+00
*INITIAL_STRESS_SOLID
$#    eid    nint   nhisv   large     ics   ncomp
        69       1       0       0       0       0
$#  sigxx     sigyy     sigzz     sigxy     sigyz     sigxz
-7.544e+10-5.120e+10-9.521e+10-1.896e-04-8.219e-05 9.282e+09
$#    eps
 0.000e+00
*INITIAL_STRESS_SOLID
$#    eid    nint   nhisv   large     ics   ncomp
        70       1       0       0       0       0
$#  sigxx     sigyy     sigzz     sigxy     sigyz     sigxz
-1.167e+11-7.520e+10-1.340e+11 1.786e-04 9.046e-05 1.045e+10
$#    eps
 0.000e+00
*INITIAL_STRESS_SOLID
$#    eid    nint   nhisv   large     ics   ncomp
        71       1       0       0       0       0
$#  sigxx     sigyy     sigzz     sigxy     sigyz     sigxz
-1.625e+11-1.018e+11-1.770e+11-6.402e-05-1.009e-04 1.145e+10
$#    eps
 0.000e+00
*INITIAL_STRESS_SOLID
$#    eid    nint   nhisv   large     ics   ncomp
        72       1       0       0       0       0
$#  sigxx     sigyy     sigzz     sigxy     sigyz     sigxz
-2.120e+11-1.307e+11-2.236e+11-1.025e-04-8.006e-07 1.227e+10
$#    eps
 0.000e+00
*INITIAL_STRESS_SOLID
$#    eid    nint   nhisv   large     ics   ncomp
        73       1       0       0       0       0
$#  sigxx     sigyy     sigzz     sigxy     sigyz     sigxz
-2.646e+11-1.613e+11-2.730e+11 1.394e-04 1.136e-04 1.290e+10
$#    eps
 0.000e+00
*INITIAL_STRESS_SOLID
$#    eid    nint   nhisv   large     ics   ncomp
        74       1       0       0       0       0
$#  sigxx     sigyy     sigzz     sigxy     sigyz     sigxz
-3.194e+11-1.932e+11-3.245e+11-2.274e-04-1.158e-04 1.332e+10
$#    eps
 0.000e+00
*INITIAL_STRESS_SOLID
$#    eid    nint   nhisv   large     ics   ncomp
        75       1       0       0       0       0
$#  sigxx     sigyy     sigzz     sigxy     sigyz     sigxz
-3.756e+11-2.258e+11-3.773e+11 1.100e-04 1.176e-04 1.353e+10
$#    eps
 0.000e+00
*INITIAL_STRESS_SOLID
$#    eid    nint   nhisv   large     ics   ncomp
        76       1       0       0       0       0
$#  sigxx     sigyy     sigzz     sigxy     sigyz     sigxz
-4.321e+11-2.588e+11-4.304e+11 1.025e-04-1.274e-19 1.353e+10
$#    eps
 0.000e+00
*INITIAL_STRESS_SOLID
$#    eid    nint   nhisv   large     ics   ncomp
        77       1       0       0       0       0
$#  sigxx     sigyy     sigzz     sigxy     sigyz     sigxz
-4.883e+11-2.914e+11-4.832e+11-1.826e-04-1.174e-04 1.332e+10
$#    eps
 0.000e+00
*INITIAL_STRESS_SOLID
$#    eid    nint   nhisv   large     ics   ncomp
        78       1       0       0       0       0
$#  sigxx     sigyy     sigzz     sigxy     sigyz     sigxz
-5.431e+11-3.233e+11-5.347e+11 6.556e-05 1.136e-04 1.290e+10
$#    eps
 0.000e+00
*INITIAL_STRESS_SOLID
$#    eid    nint   nhisv   large     ics   ncomp
        79       1       0       0       0       0
$#  sigxx     sigyy     sigzz     sigxy     sigyz     sigxz
-5.957e+11-3.539e+11-5.841e+11-1.025e-04 3.203e-06 1.227e+10
$#    eps
 0.000e+00
*INITIAL_STRESS_SOLID
$#    eid    nint   nhisv   large     ics   ncomp
        80       1       0       0       0       0
$#  sigxx     sigyy     sigzz     sigxy     sigyz     sigxz
-6.452e+11-3.828e+11-6.307e+11 6.402e-05-1.041e-04 1.145e+10
$#    eps
 0.000e+00
*INITIAL_STRESS_SOLID
$#    eid    nint   nhisv   large     ics   ncomp
        81       1       0       0       0       0
$#  sigxx     sigyy     sigzz     sigxy     sigyz     sigxz
-6.910e+11-4.094e+11-6.737e+11 2.632e-05 9.527e-05 1.045e+10
$#    eps
 0.000e+00
*INITIAL_STRESS_SOLID
$#    eid    nint   nhisv   large     ics   ncomp
        82       1       0       0       0       0
$#  sigxx     sigyy     sigzz     sigxy     sigyz     sigxz
-7.323e+11-4.334e+11-7.125e+11-1.538e-05-8.499e-05 9.282e+09
$#    eps
 0.000e+00
*INITIAL_STRESS_SOLID
$#    eid    nint   nhisv   large     ics   ncomp
        83       1       0       0       0       0
$#  sigxx     sigyy     sigzz     sigxy     sigyz     sigxz
-7.683e+11-4.544e+11-7.464e+11 1.025e-04 0.000e+00 7.970e+09
$#    eps
 0.000e+00
*INITIAL_STRESS_SOLID
$#    eid    nint   nhisv   large     ics   ncomp
        84       1       0       0       0       0
$#  sigxx     sigyy     sigzz     sigxy     sigyz     sigxz
-7.986e+11-4.720e+11-7.749e+11-2.072e-04 5.756e-05 6.532e+09
$#    eps
 0.000e+00
*INITIAL_STRESS_SOLID
$#    eid    nint   nhisv   large     ics   ncomp
        85       1       0       0       0       0
$#  sigxx     sigyy     sigzz     sigxy     sigyz     sigxz
-8.227e+11-4.861e+11-7.975e+11 8.611e-06-5.039e-05 4.991e+09
$#    eps
 0.000e+00
*INITIAL_STRESS_SOLID
$#    eid    nint   nhisv   large     ics   ncomp
        86       1       0       0       0       0
$#  sigxx     sigyy     sigzz     sigxy     sigyz     sigxz
-8.402e+11-4.962e+11-8.139e+11 2.050e-04 0.000e+00 3.372e+09
$#    eps
 0.000e+00
*INITIAL_STRESS_SOLID
$#    eid    nint   nhisv   large     ics   ncomp
        87       1       0       0       0       0
$#  sigxx     sigyy     sigzz     sigxy     sigyz     sigxz
-8.508e+11-5.024e+11-8.239e+11-3.235e-04 2.138e-05 1.699e+09
$#    eps
 0.000e+00
*INITIAL_STRESS_SOLID
$#    eid    nint   nhisv   large     ics   ncomp
        88       1       0       0       0       0
$#  sigxx     sigyy     sigzz     sigxy     sigyz     sigxz
-8.095e+11-4.853e+11-8.083e+11-2.057e-04 6.562e-06-2.412e+09
$#    eps
 0.000e+00
*INITIAL_STRESS_SOLID
$#    eid    nint   nhisv   large     ics   ncomp
        89       1       0       0       0       0
$#  sigxx     sigyy     sigzz     sigxy     sigyz     sigxz
-8.077e+11-4.846e+11-8.077e+11-1.025e-04 1.274e-19 8.608e-04
$#    eps
 0.000e+00
*INITIAL_STRESS_SOLID
$#    eid    nint   nhisv   large     ics   ncomp
        90       1       0       0       0       0
$#  sigxx     sigyy     sigzz     sigxy     sigyz     sigxz
-8.077e+11-4.846e+11-8.077e+11-1.537e-04 0.000e+00-1.291e-03
$#    eps
 0.000e+00
*INITIAL_STRESS_SOLID
$#    eid    nint   nhisv   large     ics   ncomp
        91       1       0       0       0       0
$#  sigxx     sigyy     sigzz     sigxy     sigyz     sigxz
-8.077e+11-4.846e+11-8.077e+11 1.537e-04 0.000e+00 1.291e-03
$#    eps
 0.000e+00
*INITIAL_STRESS_SOLID
$#    eid    nint   nhisv   large     ics   ncomp
        92       1       0       0       0       0
$#  sigxx     sigyy     sigzz     sigxy     sigyz     sigxz
-8.077e+11-4.846e+11-8.077e+11-1.025e-04-1.274e-19-2.583e-03
$#    eps
 0.000e+00
*INITIAL_STRESS_SOLID
$#    eid    nint   nhisv   large     ics   ncomp
        93       1       0       0       0       0
$#  sigxx     sigyy     sigzz     sigxy     sigyz     sigxz
-8.077e+11-4.846e+11-8.077e+11 5.124e-05 0.000e+00 4.304e-04
$#    eps
 0.000e+00
*INITIAL_STRESS_SOLID
$#    eid    nint   nhisv   large     ics   ncomp
        94       1       0       0       0       0
$#  sigxx     sigyy     sigzz     sigxy     sigyz     sigxz
-8.077e+11-4.846e+11-8.077e+11 5.124e-05 1.274e-19 2.152e-03
$#    eps
 0.000e+00
*INITIAL_STRESS_SOLID
$#    eid    nint   nhisv   large     ics   ncomp
        95       1       0       0       0       0
$#  sigxx     sigyy     sigzz     sigxy     sigyz     sigxz
-8.077e+11-4.846e+11-8.077e+11-1.025e-04 0.000e+00-8.608e-04
$#    eps
 0.000e+00
*INITIAL_STRESS_SOLID
$#    eid    nint   nhisv   large     ics   ncomp
        96       1       0       0       0       0
$#  sigxx     sigyy     sigzz     sigxy     sigyz     sigxz
-8.077e+11-4.846e+11-8.077e+11-2.562e-05 1.274e-19 2.152e-04
$#    eps
 0.000e+00
*INITIAL_STRESS_SOLID
$#    eid    nint   nhisv   large     ics   ncomp
        97       1       0       0       0       0
$#  sigxx     sigyy     sigzz     sigxy     sigyz     sigxz
-8.077e+11-4.846e+11-8.077e+11 2.050e-04 0.000e+00 1.722e-03
$#    eps
 0.000e+00
*INITIAL_STRESS_SOLID
$#    eid    nint   nhisv   large     ics   ncomp
        98       1       0       0       0       0
$#  sigxx     sigyy     sigzz     sigxy     sigyz     sigxz
-8.077e+11-4.846e+11-8.077e+11 0.000e+00 1.274e-19 3.443e-03
$#    eps
 0.000e+00
*INITIAL_STRESS_SOLID
$#    eid    nint   nhisv   large     ics   ncomp
        99       1       0       0       0       0
$#  sigxx     sigyy     sigzz     sigxy     sigyz     sigxz
-8.077e+11-4.846e+11-8.077e+11-1.281e-05 1.274e-19 3.336e-03
$#    eps
 0.000e+00
*INITIAL_STRESS_SOLID
$#    eid    nint   nhisv   large     ics   ncomp
       100       1       0       0       0       0
$#  sigxx     sigyy     sigzz     sigxy     sigyz     sigxz
-8.077e+11-4.846e+11-8.077e+11-2.050e-04 0.000e+00-1.722e-03
$#    eps
 0.000e+00
*INITIAL_STRESS_SOLID
$#    eid    nint   nhisv   large     ics   ncomp
       101       1       0       0       0       0
$#  sigxx     sigyy     sigzz     sigxy     sigyz     sigxz
-4.484e-05-2.690e-05-4.484e-05 0.000e+00 6.372e-20 0.000e+00
$#    eps
 0.000e+00
*INITIAL_STRESS_SOLID
$#    eid    nint   nhisv   large     ics   ncomp
       102       1       0       0       0       0
$#  sigxx     sigyy     sigzz     sigxy     sigyz     sigxz
-4.484e-05-2.690e-05-4.484e-05-1.991e-21 6.372e-20 0.000e+00
$#    eps
 0.000e+00
*INITIAL_STRESS_SOLID
$#    eid    nint   nhisv   large     ics   ncomp
       103       1       0       0       0       0
$#  sigxx     sigyy     sigzz     sigxy     sigyz     sigxz
-4.484e-05-4.484e-05-2.690e-05 0.000e+00 0.000e+00 3.186e-20
$#    eps
 0.000e+00
*INITIAL_STRESS_SOLID
$#    eid    nint   nhisv   large     ics   ncomp
       104       1       0       0       0       0
$#  sigxx     sigyy     sigzz     sigxy     sigyz     sigxz
-4.484e-05-4.484e-05-2.690e-05 0.000e+00 0.000e+00 0.000e+00
$#    eps
 0.000e+00
*INITIAL_STRESS_SOLID
$#    eid    nint   nhisv   large     ics   ncomp
       105       1       0       0       0       0
$#  sigxx     sigyy     sigzz     sigxy     sigyz     sigxz
-3.139e-05-1.345e-05-1.345e-05 0.000e+00 0.000e+00-1.274e-19
$#    eps
 0.000e+00
*INITIAL_STRESS_SOLID
$#    eid    nint   nhisv   large     ics   ncomp
       106       1       0       0       0       0
$#  sigxx     sigyy     sigzz     sigxy     sigyz     sigxz
-4.484e-05-2.690e-05-4.484e-05 3.982e-21 6.372e-20-3.186e-20
$#    eps
 0.000e+00
*INITIAL_STRESS_SOLID
$#    eid    nint   nhisv   large     ics   ncomp
       107       1       0       0       0       0
$#  sigxx     sigyy     sigzz     sigxy     sigyz     sigxz
-4.484e-05-4.484e-05-2.690e-05 0.000e+00 0.000e+00 6.372e-20
$#    eps
 0.000e+00
*INITIAL_STRESS_SOLID
$#    eid    nint   nhisv   large     ics   ncomp
       108       1       0       0       0       0
$#  sigxx     sigyy     sigzz     sigxy     sigyz     sigxz
-4.484e-05-4.484e-05-2.690e-05 0.000e+00 0.000e+00 0.000e+00
$#    eps
 0.000e+00
*INITIAL_STRESS_SOLID
$#    eid    nint   nhisv   large     ics   ncomp
       109       1       0       0       0       0
$#  sigxx     sigyy     sigzz     sigxy     sigyz     sigxz
-1.345e-05-1.345e-05-3.139e-05 0.000e+00 6.372e-20-1.274e-19
$#    eps
 0.000e+00
*INITIAL_STRESS_SOLID
$#    eid    nint   nhisv   large     ics   ncomp
       110       1       0       0       0       0
$#  sigxx     sigyy     sigzz     sigxy     sigyz     sigxz
-4.484e-05-4.484e-05-2.690e-05 0.000e+00 0.000e+00 6.372e-20
$#    eps
 0.000e+00
*INITIAL_STRESS_SOLID
$#    eid    nint   nhisv   large     ics   ncomp
       111       1       0       0       0       0
$#  sigxx     sigyy     sigzz     sigxy     sigyz     sigxz
-4.484e-05-2.690e-05-4.484e-05-7.964e-21 6.372e-20 0.000e+00
$#    eps
 0.000e+00
*INITIAL_STRESS_SOLID
$#    eid    nint   nhisv   large     ics   ncomp
       112       1       0       0       0       0
$#  sigxx     sigyy     sigzz     sigxy     sigyz     sigxz
-1.345e-05-1.345e-05-3.139e-05-1.593e-20 6.372e-20 1.274e-19
$#    eps
 0.000e+00
*INITIAL_STRESS_SOLID
$#    eid    nint   nhisv   large     ics   ncomp
       113       1       0       0       0       0
$#  sigxx     sigyy     sigzz     sigxy     sigyz     sigxz
 1.841e+09 7.208e+08 5.614e+08-1.025e-04-2.002e-07-2.412e+09
$#    eps
 0.000e+00
*INITIAL_STRESS_SOLID
$#    eid    nint   nhisv   large     ics   ncomp
       114       1       0       0       0       0
$#  sigxx     sigyy     sigzz     sigxy     sigyz     sigxz
 4.311e+10 1.779e+10 1.620e+10-3.235e-04-1.498e-05 1.699e+09
$#    eps
 0.000e+00
*INITIAL_STRESS_SOLID
$#    eid    nint   nhisv   large     ics   ncomp
       115       1       0       0       0       0
$#  sigxx     sigyy     sigzz     sigxy     sigyz     sigxz
 3.251e+10 1.162e+10 6.240e+09 3.207e-04 3.011e-05 3.372e+09
$#    eps
 0.000e+00
*INITIAL_STRESS_SOLID
$#    eid    nint   nhisv   large     ics   ncomp
       116       1       0       0       0       0
$#  sigxx     sigyy     sigzz     sigxy     sigyz     sigxz
 1.502e+10 1.450e+09-1.019e+10-2.136e-04-4.358e-05 4.991e+09
$#    eps
 0.000e+00
*INITIAL_STRESS_SOLID
$#    eid    nint   nhisv   large     ics   ncomp
       117       1       0       0       0       0
$#  sigxx     sigyy     sigzz     sigxy     sigyz     sigxz
-9.065e+09-1.257e+10-3.283e+10-1.025e-04 1.001e-07 6.532e+09
$#    eps
 0.000e+00
*INITIAL_STRESS_SOLID
$#    eid    nint   nhisv   large     ics   ncomp
       118       1       0       0       0       0
$#  sigxx     sigyy     sigzz     sigxy     sigyz     sigxz
-3.938e+10-3.021e+10-6.132e+10 1.991e-04 7.023e-05 7.970e+09
$#    eps
 0.000e+00
*INITIAL_STRESS_SOLID
$#    eid    nint   nhisv   large     ics   ncomp
       119       1       0       0       0       0
$#  sigxx     sigyy     sigzz     sigxy     sigyz     sigxz
-7.544e+10-5.120e+10-9.521e+10-1.896e-04-8.219e-05 9.282e+09
$#    eps
 0.000e+00
*INITIAL_STRESS_SOLID
$#    eid    nint   nhisv   large     ics   ncomp
       120       1       0       0       0       0
$#  sigxx     sigyy     sigzz     sigxy     sigyz     sigxz
-1.167e+11-7.520e+10-1.340e+11 1.786e-04 9.046e-05 1.045e+10
$#    eps
 0.000e+00
*INITIAL_STRESS_SOLID
$#    eid    nint   nhisv   large     ics   ncomp
       121       1       0       0       0       0
$#  sigxx     sigyy     sigzz     sigxy     sigyz     sigxz
-1.625e+11-1.018e+11-1.770e+11-6.402e-05-1.009e-04 1.145e+10
$#    eps
 0.000e+00
*INITIAL_STRESS_SOLID
$#    eid    nint   nhisv   large     ics   ncomp
       122       1       0       0       0       0
$#  sigxx     sigyy     sigzz     sigxy     sigyz     sigxz
-2.120e+11-1.307e+11-2.236e+11-1.025e-04-8.006e-07 1.227e+10
$#    eps
 0.000e+00
*INITIAL_STRESS_SOLID
$#    eid    nint   nhisv   large     ics   ncomp
       123       1       0       0       0       0
$#  sigxx     sigyy     sigzz     sigxy     sigyz     sigxz
-2.646e+11-1.613e+11-2.730e+11 1.394e-04 1.136e-04 1.290e+10
$#    eps
 0.000e+00
*INITIAL_STRESS_SOLID
$#    eid    nint   nhisv   large     ics   ncomp
       124       1       0       0       0       0
$#  sigxx     sigyy     sigzz     sigxy     sigyz     sigxz
-3.194e+11-1.932e+11-3.245e+11-2.274e-04-1.158e-04 1.332e+10
$#    eps
 0.000e+00
*INITIAL_STRESS_SOLID
$#    eid    nint   nhisv   large     ics   ncomp
       125       1       0       0       0       0
$#  sigxx     sigyy     sigzz     sigxy     sigyz     sigxz
-3.756e+11-2.258e+11-3.773e+11 1.100e-04 1.176e-04 1.353e+10
$#    eps
 0.000e+00
*INITIAL_STRESS_SOLID
$#    eid    nint   nhisv   large     ics   ncomp
       126       1       0       0       0       0
$#  sigxx     sigyy     sigzz     sigxy     sigyz     sigxz
-4.321e+11-2.588e+11-4.304e+11 1.025e-04 0.000e+00 1.353e+10
$#    eps
 0.000e+00
*INITIAL_STRESS_SOLID
$#    eid    nint   nhisv   large     ics   ncomp
       127       1       0       0       0       0
$#  sigxx     sigyy     sigzz     sigxy     sigyz     sigxz
-4.883e+11-2.914e+11-4.832e+11-1.826e-04-1.174e-04 1.332e+10
$#    eps
 0.000e+00
*INITIAL_STRESS_SOLID
$#    eid    nint   nhisv   large     ics   ncomp
       128       1       0       0       0       0
$#  sigxx     sigyy     sigzz     sigxy     sigyz     sigxz
-5.431e+11-3.233e+11-5.347e+11 6.556e-05 1.136e-04 1.290e+10
$#    eps
 0.000e+00
*INITIAL_STRESS_SOLID
$#    eid    nint   nhisv   large     ics   ncomp
       129       1       0       0       0       0
$#  sigxx     sigyy     sigzz     sigxy     sigyz     sigxz
-5.957e+11-3.539e+11-5.841e+11-1.025e-04 3.203e-06 1.227e+10
$#    eps
 0.000e+00
*INITIAL_STRESS_SOLID
$#    eid    nint   nhisv   large     ics   ncomp
       130       1       0       0       0       0
$#  sigxx     sigyy     sigzz     sigxy     sigyz     sigxz
-6.452e+11-3.828e+11-6.307e+11 6.402e-05-1.041e-04 1.145e+10
$#    eps
 0.000e+00
*INITIAL_STRESS_SOLID
$#    eid    nint   nhisv   large     ics   ncomp
       131       1       0       0       0       0
$#  sigxx     sigyy     sigzz     sigxy     sigyz     sigxz
-6.910e+11-4.094e+11-6.737e+11 2.632e-05 9.527e-05 1.045e+10
$#    eps
 0.000e+00
*INITIAL_STRESS_SOLID
$#    eid    nint   nhisv   large     ics   ncomp
       132       1       0       0       0       0
$#  sigxx     sigyy     sigzz     sigxy     sigyz     sigxz
-7.323e+11-4.334e+11-7.125e+11-1.538e-05-8.499e-05 9.282e+09
$#    eps
 0.000e+00
*INITIAL_STRESS_SOLID
$#    eid    nint   nhisv   large     ics   ncomp
       133       1       0       0       0       0
$#  sigxx     sigyy     sigzz     sigxy     sigyz     sigxz
-7.683e+11-4.544e+11-7.464e+11 1.025e-04 0.000e+00 7.970e+09
$#    eps
 0.000e+00
*INITIAL_STRESS_SOLID
$#    eid    nint   nhisv   large     ics   ncomp
       134       1       0       0       0       0
$#  sigxx     sigyy     sigzz     sigxy     sigyz     sigxz
-7.986e+11-4.720e+11-7.749e+11-2.072e-04 5.756e-05 6.532e+09
$#    eps
 0.000e+00
*INITIAL_STRESS_SOLID
$#    eid    nint   nhisv   large     ics   ncomp
       135       1       0       0       0       0
$#  sigxx     sigyy     sigzz     sigxy     sigyz     sigxz
-8.227e+11-4.861e+11-7.975e+11 8.611e-06-5.039e-05 4.991e+09
$#    eps
 0.000e+00
*INITIAL_STRESS_SOLID
$#    eid    nint   nhisv   large     ics   ncomp
       136       1       0       0       0       0
$#  sigxx     sigyy     sigzz     sigxy     sigyz     sigxz
-8.402e+11-4.962e+11-8.139e+11 2.050e-04 0.000e+00 3.372e+09
$#    eps
 0.000e+00
*INITIAL_STRESS_SOLID
$#    eid    nint   nhisv   large     ics   ncomp
       137       1       0       0       0       0
$#  sigxx     sigyy     sigzz     sigxy     sigyz     sigxz
-8.508e+11-5.024e+11-8.239e+11-3.235e-04 2.138e-05 1.699e+09
$#    eps
 0.000e+00
*INITIAL_STRESS_SOLID
$#    eid    nint   nhisv   large     ics   ncomp
       138       1       0       0       0       0
$#  sigxx     sigyy     sigzz     sigxy     sigyz     sigxz
-8.095e+11-4.853e+11-8.083e+11-2.057e-04 6.562e-06-2.412e+09
$#    eps
 0.000e+00
*INITIAL_STRESS_SOLID
$#    eid    nint   nhisv   large     ics   ncomp
       139       1       0       0       0       0
$#  sigxx     sigyy     sigzz     sigxy     sigyz     sigxz
-8.077e+11-4.846e+11-8.077e+11-1.025e-04 0.000e+00 8.608e-04
$#    eps
 0.000e+00
*INITIAL_STRESS_SOLID
$#    eid    nint   nhisv   large     ics   ncomp
       140       1       0       0       0       0
$#  sigxx     sigyy     sigzz     sigxy     sigyz     sigxz
-8.077e+11-4.846e+11-8.077e+11-1.537e-04 6.372e-20-1.291e-03
$#    eps
 0.000e+00
*INITIAL_STRESS_SOLID
$#    eid    nint   nhisv   large     ics   ncomp
       141       1       0       0       0       0
$#  sigxx     sigyy     sigzz     sigxy     sigyz     sigxz
-8.077e+11-4.846e+11-8.077e+11 1.537e-04 6.372e-20 1.291e-03
$#    eps
 0.000e+00
*INITIAL_STRESS_SOLID
$#    eid    nint   nhisv   large     ics   ncomp
       142       1       0       0       0       0
$#  sigxx     sigyy     sigzz     sigxy     sigyz     sigxz
-8.077e+11-4.846e+11-8.077e+11-1.025e-04 0.000e+00-2.583e-03
$#    eps
 0.000e+00
*INITIAL_STRESS_SOLID
$#    eid    nint   nhisv   large     ics   ncomp
       143       1       0       0       0       0
$#  sigxx     sigyy     sigzz     sigxy     sigyz     sigxz
-8.077e+11-4.846e+11-8.077e+11 5.124e-05 6.372e-20 4.304e-04
$#    eps
 0.000e+00
*INITIAL_STRESS_SOLID
$#    eid    nint   nhisv   large     ics   ncomp
       144       1       0       0       0       0
$#  sigxx     sigyy     sigzz     sigxy     sigyz     sigxz
-8.077e+11-4.846e+11-8.077e+11 5.124e-05 0.000e+00 2.152e-03
$#    eps
 0.000e+00
*INITIAL_STRESS_SOLID
$#    eid    nint   nhisv   large     ics   ncomp
       145       1       0       0       0       0
$#  sigxx     sigyy     sigzz     sigxy     sigyz     sigxz
-8.077e+11-4.846e+11-8.077e+11-1.025e-04 0.000e+00-8.608e-04
$#    eps
 0.000e+00
*INITIAL_STRESS_SOLID
$#    eid    nint   nhisv   large     ics   ncomp
       146       1       0       0       0       0
$#  sigxx     sigyy     sigzz     sigxy     sigyz     sigxz
-8.077e+11-4.846e+11-8.077e+11-2.562e-05 0.000e+00 2.152e-04
$#    eps
 0.000e+00
*INITIAL_STRESS_SOLID
$#    eid    nint   nhisv   large     ics   ncomp
       147       1       0       0       0       0
$#  sigxx     sigyy     sigzz     sigxy     sigyz     sigxz
-8.077e+11-4.846e+11-8.077e+11 2.050e-04-6.372e-20 1.722e-03
$#    eps
 0.000e+00
*INITIAL_STRESS_SOLID
$#    eid    nint   nhisv   large     ics   ncomp
       148       1       0       0       0       0
$#  sigxx     sigyy     sigzz     sigxy     sigyz     sigxz
-8.077e+11-4.846e+11-8.077e+11 0.000e+00 0.000e+00 3.443e-03
$#    eps
 0.000e+00
*INITIAL_STRESS_SOLID
$#    eid    nint   nhisv   large     ics   ncomp
       149       1       0       0       0       0
$#  sigxx     sigyy     sigzz     sigxy     sigyz     sigxz
-8.077e+11-4.846e+11-8.077e+11-1.281e-05 0.000e+00 3.336e-03
$#    eps
 0.000e+00
*INITIAL_STRESS_SOLID
$#    eid    nint   nhisv   large     ics   ncomp
       150       1       0       0       0       0
$#  sigxx     sigyy     sigzz     sigxy     sigyz     sigxz
-8.077e+11-4.846e+11-8.077e+11-2.050e-04-6.372e-20-1.722e-03
$#    eps
 0.000e+00
*INITIAL_STRESS_SOLID
$#    eid    nint   nhisv   large     ics   ncomp
       151       1       0       0       0       0
$#  sigxx     sigyy     sigzz     sigxy     sigyz     sigxz
 5.380e-05 8.967e-05 8.967e-05 0.000e+00-2.549e-19 0.000e+00
$#    eps
 0.000e+00
*INITIAL_STRESS_SOLID
$#    eid    nint   nhisv   large     ics   ncomp
       152       1       0       0       0       0
$#  sigxx     sigyy     sigzz     sigxy     sigyz     sigxz
 5.380e-05 8.967e-05 8.967e-05 0.000e+00-2.549e-19-6.372e-20
$#    eps
 0.000e+00
*INITIAL_STRESS_SOLID
$#    eid    nint   nhisv   large     ics   ncomp
       153       1       0       0       0       0
$#  sigxx     sigyy     sigzz     sigxy     sigyz     sigxz
 2.690e-05 6.277e-05 2.690e-05 0.000e+00-1.274e-19-3.186e-20
$#    eps
 0.000e+00
*INITIAL_STRESS_SOLID
$#    eid    nint   nhisv   large     ics   ncomp
       154       1       0       0       0       0
$#  sigxx     sigyy     sigzz     sigxy     sigyz     sigxz
-3.139e-05-1.345e-05-1.345e-05 0.000e+00-1.274e-19 0.000e+00
$#    eps
 0.000e+00
*INITIAL_STRESS_SOLID
$#    eid    nint   nhisv   large     ics   ncomp
       155       1       0       0       0       0
$#  sigxx     sigyy     sigzz     sigxy     sigyz     sigxz
 2.690e-05 6.277e-05 2.690e-05 0.000e+00-1.274e-19 1.274e-19
$#    eps
 0.000e+00
*INITIAL_STRESS_SOLID
$#    eid    nint   nhisv   large     ics   ncomp
       156       1       0       0       0       0
$#  sigxx     sigyy     sigzz     sigxy     sigyz     sigxz
 5.380e-05 8.967e-05 8.967e-05 0.000e+00-2.549e-19 3.186e-20
$#    eps
 0.000e+00
*INITIAL_STRESS_SOLID
$#    eid    nint   nhisv   large     ics   ncomp
       157       1       0       0       0       0
$#  sigxx     sigyy     sigzz     sigxy     sigyz     sigxz
-3.139e-05-1.345e-05-1.345e-05-7.964e-21-1.274e-19 0.000e+00
$#    eps
 0.000e+00
*INITIAL_STRESS_SOLID
$#    eid    nint   nhisv   large     ics   ncomp
       158       1       0       0       0       0
$#  sigxx     sigyy     sigzz     sigxy     sigyz     sigxz
-3.139e-05-1.345e-05-1.345e-05 7.964e-21-1.274e-19 0.000e+00
$#    eps
 0.000e+00
*INITIAL_STRESS_SOLID
$#    eid    nint   nhisv   large     ics   ncomp
       159       1       0       0       0       0
$#  sigxx     sigyy     sigzz     sigxy     sigyz     sigxz
 5.380e-05 8.967e-05 8.967e-05 0.000e+00 0.000e+00 1.274e-19
$#    eps
 0.000e+00
*INITIAL_STRESS_SOLID
$#    eid    nint   nhisv   large     ics   ncomp
       160       1       0       0       0       0
$#  sigxx     sigyy     sigzz     sigxy     sigyz     sigxz
-3.139e-05-1.345e-05-1.345e-05-7.964e-21-1.274e-19 0.000e+00
$#    eps
 0.000e+00
*INITIAL_STRESS_SOLID
$#    eid    nint   nhisv   large     ics   ncomp
       161       1       0       0       0       0
$#  sigxx     sigyy     sigzz     sigxy     sigyz     sigxz
 5.380e-05 8.967e-05 8.967e-05 0.000e+00-2.549e-19 6.372e-20
$#    eps
 0.000e+00
*INITIAL_STRESS_SOLID
$#    eid    nint   nhisv   large     ics   ncomp
       162       1       0       0       0       0
$#  sigxx     sigyy     sigzz     sigxy     sigyz     sigxz
 5.380e-05 8.967e-05 8.967e-05 0.000e+00 0.000e+00-1.274e-19
$#    eps
 0.000e+00
*INITIAL_STRESS_SOLID
$#    eid    nint   nhisv   large     ics   ncomp
       163       1       0       0       0       0
$#  sigxx     sigyy     sigzz     sigxy     sigyz     sigxz
 1.841e+09 7.208e+08 5.614e+08-1.025e-04-2.002e-07-2.412e+09
$#    eps
 0.000e+00
*INITIAL_STRESS_SOLID
$#    eid    nint   nhisv   large     ics   ncomp
       164       1       0       0       0       0
$#  sigxx     sigyy     sigzz     sigxy     sigyz     sigxz
 4.311e+10 1.779e+10 1.620e+10-3.235e-04-1.498e-05 1.699e+09
$#    eps
 0.000e+00
*INITIAL_STRESS_SOLID
$#    eid    nint   nhisv   large     ics   ncomp
       165       1       0       0       0       0
$#  sigxx     sigyy     sigzz     sigxy     sigyz     sigxz
 3.251e+10 1.162e+10 6.240e+09 3.207e-04 3.011e-05 3.372e+09
$#    eps
 0.000e+00
*INITIAL_STRESS_SOLID
$#    eid    nint   nhisv   large     ics   ncomp
       166       1       0       0       0       0
$#  sigxx     sigyy     sigzz     sigxy     sigyz     sigxz
 1.502e+10 1.450e+09-1.019e+10-2.136e-04-4.358e-05 4.991e+09
$#    eps
 0.000e+00
*INITIAL_STRESS_SOLID
$#    eid    nint   nhisv   large     ics   ncomp
       167       1       0       0       0       0
$#  sigxx     sigyy     sigzz     sigxy     sigyz     sigxz
-9.065e+09-1.257e+10-3.283e+10-1.025e-04 1.001e-07 6.532e+09
$#    eps
 0.000e+00
*INITIAL_STRESS_SOLID
$#    eid    nint   nhisv   large     ics   ncomp
       168       1       0       0       0       0
$#  sigxx     sigyy     sigzz     sigxy     sigyz     sigxz
-3.938e+10-3.021e+10-6.132e+10 1.991e-04 7.023e-05 7.970e+09
$#    eps
 0.000e+00
*INITIAL_STRESS_SOLID
$#    eid    nint   nhisv   large     ics   ncomp
       169       1       0       0       0       0
$#  sigxx     sigyy     sigzz     sigxy     sigyz     sigxz
-7.544e+10-5.120e+10-9.521e+10-1.896e-04-8.219e-05 9.282e+09
$#    eps
 0.000e+00
*INITIAL_STRESS_SOLID
$#    eid    nint   nhisv   large     ics   ncomp
       170       1       0       0       0       0
$#  sigxx     sigyy     sigzz     sigxy     sigyz     sigxz
-1.167e+11-7.520e+10-1.340e+11 1.786e-04 9.046e-05 1.045e+10
$#    eps
 0.000e+00
*INITIAL_STRESS_SOLID
$#    eid    nint   nhisv   large     ics   ncomp
       171       1       0       0       0       0
$#  sigxx     sigyy     sigzz     sigxy     sigyz     sigxz
-1.625e+11-1.018e+11-1.770e+11-6.402e-05-1.009e-04 1.145e+10
$#    eps
 0.000e+00
*INITIAL_STRESS_SOLID
$#    eid    nint   nhisv   large     ics   ncomp
       172       1       0       0       0       0
$#  sigxx     sigyy     sigzz     sigxy     sigyz     sigxz
-2.120e+11-1.307e+11-2.236e+11-1.025e-04-8.006e-07 1.227e+10
$#    eps
 0.000e+00
*INITIAL_STRESS_SOLID
$#    eid    nint   nhisv   large     ics   ncomp
       173       1       0       0       0       0
$#  sigxx     sigyy     sigzz     sigxy     sigyz     sigxz
-2.646e+11-1.613e+11-2.730e+11 1.394e-04 1.136e-04 1.290e+10
$#    eps
 0.000e+00
*INITIAL_STRESS_SOLID
$#    eid    nint   nhisv   large     ics   ncomp
       174       1       0       0       0       0
$#  sigxx     sigyy     sigzz     sigxy     sigyz     sigxz
-3.194e+11-1.932e+11-3.245e+11-2.274e-04-1.158e-04 1.332e+10
$#    eps
 0.000e+00
*INITIAL_STRESS_SOLID
$#    eid    nint   nhisv   large     ics   ncomp
       175       1       0       0       0       0
$#  sigxx     sigyy     sigzz     sigxy     sigyz     sigxz
-3.756e+11-2.258e+11-3.773e+11 1.100e-04 1.176e-04 1.353e+10
$#    eps
 0.000e+00
*INITIAL_STRESS_SOLID
$#    eid    nint   nhisv   large     ics   ncomp
       176       1       0       0       0       0
$#  sigxx     sigyy     sigzz     sigxy     sigyz     sigxz
-4.321e+11-2.588e+11-4.304e+11 1.025e-04 0.000e+00 1.353e+10
$#    eps
 0.000e+00
*INITIAL_STRESS_SOLID
$#    eid    nint   nhisv   large     ics   ncomp
       177       1       0       0       0       0
$#  sigxx     sigyy     sigzz     sigxy     sigyz     sigxz
-4.883e+11-2.914e+11-4.832e+11-1.826e-04-1.174e-04 1.332e+10
$#    eps
 0.000e+00
*INITIAL_STRESS_SOLID
$#    eid    nint   nhisv   large     ics   ncomp
       178       1       0       0       0       0
$#  sigxx     sigyy     sigzz     sigxy     sigyz     sigxz
-5.431e+11-3.233e+11-5.347e+11 6.556e-05 1.136e-04 1.290e+10
$#    eps
 0.000e+00
*INITIAL_STRESS_SOLID
$#    eid    nint   nhisv   large     ics   ncomp
       179       1       0       0       0       0
$#  sigxx     sigyy     sigzz     sigxy     sigyz     sigxz
-5.957e+11-3.539e+11-5.841e+11-1.025e-04 3.203e-06 1.227e+10
$#    eps
 0.000e+00
*INITIAL_STRESS_SOLID
$#    eid    nint   nhisv   large     ics   ncomp
       180       1       0       0       0       0
$#  sigxx     sigyy     sigzz     sigxy     sigyz     sigxz
-6.452e+11-3.828e+11-6.307e+11 6.402e-05-1.041e-04 1.145e+10
$#    eps
 0.000e+00
*INITIAL_STRESS_SOLID
$#    eid    nint   nhisv   large     ics   ncomp
       181       1       0       0       0       0
$#  sigxx     sigyy     sigzz     sigxy     sigyz     sigxz
-6.910e+11-4.094e+11-6.737e+11 2.632e-05 9.527e-05 1.045e+10
$#    eps
 0.000e+00
*INITIAL_STRESS_SOLID
$#    eid    nint   nhisv   large     ics   ncomp
       182       1       0       0       0       0
$#  sigxx     sigyy     sigzz     sigxy     sigyz     sigxz
-7.323e+11-4.334e+11-7.125e+11-1.538e-05-8.499e-05 9.282e+09
$#    eps
 0.000e+00
*INITIAL_STRESS_SOLID
$#    eid    nint   nhisv   large     ics   ncomp
       183       1       0       0       0       0
$#  sigxx     sigyy     sigzz     sigxy     sigyz     sigxz
-7.683e+11-4.544e+11-7.464e+11 1.025e-04-1.274e-19 7.970e+09
$#    eps
 0.000e+00
*INITIAL_STRESS_SOLID
$#    eid    nint   nhisv   large     ics   ncomp
       184       1       0       0       0       0
$#  sigxx     sigyy     sigzz     sigxy     sigyz     sigxz
-7.986e+11-4.720e+11-7.749e+11-2.072e-04 5.756e-05 6.532e+09
$#    eps
 0.000e+00
*INITIAL_STRESS_SOLID
$#    eid    nint   nhisv   large     ics   ncomp
       185       1       0       0       0       0
$#  sigxx     sigyy     sigzz     sigxy     sigyz     sigxz
-8.227e+11-4.861e+11-7.975e+11 8.611e-06-5.039e-05 4.991e+09
$#    eps
 0.000e+00
*INITIAL_STRESS_SOLID
$#    eid    nint   nhisv   large     ics   ncomp
       186       1       0       0       0       0
$#  sigxx     sigyy     sigzz     sigxy     sigyz     sigxz
-8.402e+11-4.962e+11-8.139e+11 2.050e-04-1.274e-19 3.372e+09
$#    eps
 0.000e+00
*INITIAL_STRESS_SOLID
$#    eid    nint   nhisv   large     ics   ncomp
       187       1       0       0       0       0
$#  sigxx     sigyy     sigzz     sigxy     sigyz     sigxz
-8.508e+11-5.024e+11-8.239e+11-3.235e-04 2.138e-05 1.699e+09
$#    eps
 0.000e+00
*INITIAL_STRESS_SOLID
$#    eid    nint   nhisv   large     ics   ncomp
       188       1       0       0       0       0
$#  sigxx     sigyy     sigzz     sigxy     sigyz     sigxz
-8.095e+11-4.853e+11-8.083e+11-2.057e-04 6.562e-06-2.412e+09
$#    eps
 0.000e+00
*INITIAL_STRESS_SOLID
$#    eid    nint   nhisv   large     ics   ncomp
       189       1       0       0       0       0
$#  sigxx     sigyy     sigzz     sigxy     sigyz     sigxz
-8.077e+11-4.846e+11-8.077e+11-1.025e-04-1.274e-19 8.608e-04
$#    eps
 0.000e+00
*INITIAL_STRESS_SOLID
$#    eid    nint   nhisv   large     ics   ncomp
       190       1       0       0       0       0
$#  sigxx     sigyy     sigzz     sigxy     sigyz     sigxz
-8.077e+11-4.846e+11-8.077e+11-1.537e-04 0.000e+00-1.291e-03
$#    eps
 0.000e+00
*INITIAL_STRESS_SOLID
$#    eid    nint   nhisv   large     ics   ncomp
       191       1       0       0       0       0
$#  sigxx     sigyy     sigzz     sigxy     sigyz     sigxz
-8.077e+11-4.846e+11-8.077e+11 1.537e-04 0.000e+00 1.291e-03
$#    eps
 0.000e+00
*INITIAL_STRESS_SOLID
$#    eid    nint   nhisv   large     ics   ncomp
       192       1       0       0       0       0
$#  sigxx     sigyy     sigzz     sigxy     sigyz     sigxz
-8.077e+11-4.846e+11-8.077e+11-1.025e-04 0.000e+00-2.583e-03
$#    eps
 0.000e+00
*INITIAL_STRESS_SOLID
$#    eid    nint   nhisv   large     ics   ncomp
       193       1       0       0       0       0
$#  sigxx     sigyy     sigzz     sigxy     sigyz     sigxz
-8.077e+11-4.846e+11-8.077e+11 5.124e-05 0.000e+00 4.304e-04
$#    eps
 0.000e+00
*INITIAL_STRESS_SOLID
$#    eid    nint   nhisv   large     ics   ncomp
       194       1       0       0       0       0
$#  sigxx     sigyy     sigzz     sigxy     sigyz     sigxz
-8.077e+11-4.846e+11-8.077e+11 5.124e-05 0.000e+00 2.152e-03
$#    eps
 0.000e+00
*INITIAL_STRESS_SOLID
$#    eid    nint   nhisv   large     ics   ncomp
       195       1       0       0       0       0
$#  sigxx     sigyy     sigzz     sigxy     sigyz     sigxz
-8.077e+11-4.846e+11-8.077e+11-1.025e-04-1.274e-19-8.608e-04
$#    eps
 0.000e+00
*INITIAL_STRESS_SOLID
$#    eid    nint   nhisv   large     ics   ncomp
       196       1       0       0       0       0
$#  sigxx     sigyy     sigzz     sigxy     sigyz     sigxz
-8.077e+11-4.846e+11-8.077e+11-2.562e-05-1.274e-19 2.152e-04
$#    eps
 0.000e+00
*INITIAL_STRESS_SOLID
$#    eid    nint   nhisv   large     ics   ncomp
       197       1       0       0       0       0
$#  sigxx     sigyy     sigzz     sigxy     sigyz     sigxz
-8.077e+11-4.846e+11-8.077e+11 2.050e-04-1.274e-19 1.722e-03
$#    eps
 0.000e+00
*INITIAL_STRESS_SOLID
$#    eid    nint   nhisv   large     ics   ncomp
       198       1       0       0       0       0
$#  sigxx     sigyy     sigzz     sigxy     sigyz     sigxz
-8.077e+11-4.846e+11-8.077e+11 0.000e+00-1.274e-19 3.443e-03
$#    eps
 0.000e+00
*INITIAL_STRESS_SOLID
$#    eid    nint   nhisv   large     ics   ncomp
       199       1       0       0       0       0
$#  sigxx     sigyy     sigzz     sigxy     sigyz     sigxz
-8.077e+11-4.846e+11-8.077e+11-1.281e-05-1.274e-19 3.336e-03
$#    eps
 0.000e+00
*INITIAL_STRESS_SOLID
$#    eid    nint   nhisv   large     ics   ncomp
       200       1       0       0       0       0
$#  sigxx     sigyy     sigzz     sigxy     sigyz     sigxz
-8.077e+11-4.846e+11-8.077e+11-2.050e-04-1.274e-19-1.722e-03
$#    eps
 0.000e+00
*INITIAL_STRESS_SOLID
$#    eid    nint   nhisv   large     ics   ncomp
       201       1       0       0       0       0
$#  sigxx     sigyy     sigzz     sigxy     sigyz     sigxz
-4.484e-05-2.690e-05-4.484e-05 0.000e+00 0.000e+00 0.000e+00
$#    eps
 0.000e+00
*INITIAL_STRESS_SOLID
$#    eid    nint   nhisv   large     ics   ncomp
       202       1       0       0       0       0
$#  sigxx     sigyy     sigzz     sigxy     sigyz     sigxz
-4.484e-05-2.690e-05-4.484e-05 0.000e+00 0.000e+00 0.000e+00
$#    eps
 0.000e+00
*INITIAL_STRESS_SOLID
$#    eid    nint   nhisv   large     ics   ncomp
       203       1       0       0       0       0
$#  sigxx     sigyy     sigzz     sigxy     sigyz     sigxz
-3.139e-05-1.345e-05-1.345e-05 0.000e+00 0.000e+00 3.186e-20
$#    eps
 0.000e+00
*INITIAL_STRESS_SOLID
$#    eid    nint   nhisv   large     ics   ncomp
       204       1       0       0       0       0
$#  sigxx     sigyy     sigzz     sigxy     sigyz     sigxz
-3.139e-05-1.345e-05-1.345e-05 0.000e+00 0.000e+00 0.000e+00
$#    eps
 0.000e+00
*INITIAL_STRESS_SOLID
$#    eid    nint   nhisv   large     ics   ncomp
       205       1       0       0       0       0
$#  sigxx     sigyy     sigzz     sigxy     sigyz     sigxz
-4.484e-05-2.690e-05-4.484e-05 0.000e+00 0.000e+00 0.000e+00
$#    eps
 0.000e+00
*INITIAL_STRESS_SOLID
$#    eid    nint   nhisv   large     ics   ncomp
       206       1       0       0       0       0
$#  sigxx     sigyy     sigzz     sigxy     sigyz     sigxz
 2.690e-05 6.277e-05 2.690e-05 0.000e+00 0.000e+00 0.000e+00
$#    eps
 0.000e+00
*INITIAL_STRESS_SOLID
$#    eid    nint   nhisv   large     ics   ncomp
       207       1       0       0       0       0
$#  sigxx     sigyy     sigzz     sigxy     sigyz     sigxz
-3.139e-05-1.345e-05-1.345e-05 0.000e+00 0.000e+00 6.372e-20
$#    eps
 0.000e+00
*INITIAL_STRESS_SOLID
$#    eid    nint   nhisv   large     ics   ncomp
       208       1       0       0       0       0
$#  sigxx     sigyy     sigzz     sigxy     sigyz     sigxz
-3.139e-05-1.345e-05-1.345e-05 0.000e+00 0.000e+00 0.000e+00
$#    eps
 0.000e+00
*INITIAL_STRESS_SOLID
$#    eid    nint   nhisv   large     ics   ncomp
       209       1       0       0       0       0
$#  sigxx     sigyy     sigzz     sigxy     sigyz     sigxz
 2.690e-05 6.277e-05 2.690e-05 0.000e+00 0.000e+00 0.000e+00
$#    eps
 0.000e+00
*INITIAL_STRESS_SOLID
$#    eid    nint   nhisv   large     ics   ncomp
       210       1       0       0       0       0
$#  sigxx     sigyy     sigzz     sigxy     sigyz     sigxz
-3.139e-05-1.345e-05-1.345e-05 0.000e+00 0.000e+00 6.372e-20
$#    eps
 0.000e+00
*INITIAL_STRESS_SOLID
$#    eid    nint   nhisv   large     ics   ncomp
       211       1       0       0       0       0
$#  sigxx     sigyy     sigzz     sigxy     sigyz     sigxz
-4.484e-05-2.690e-05-4.484e-05 0.000e+00 0.000e+00-6.372e-20
$#    eps
 0.000e+00
*INITIAL_STRESS_SOLID
$#    eid    nint   nhisv   large     ics   ncomp
       212       1       0       0       0       0
$#  sigxx     sigyy     sigzz     sigxy     sigyz     sigxz
 2.690e-05 6.277e-05 2.690e-05 0.000e+00 0.000e+00 0.000e+00
$#    eps
 0.000e+00
*INITIAL_STRESS_SOLID
$#    eid    nint   nhisv   large     ics   ncomp
       213       1       0       0       0       0
$#  sigxx     sigyy     sigzz     sigxy     sigyz     sigxz
 1.841e+09 7.208e+08 5.614e+08-1.025e-04-2.002e-07-2.412e+09
$#    eps
 0.000e+00
*INITIAL_STRESS_SOLID
$#    eid    nint   nhisv   large     ics   ncomp
       214       1       0       0       0       0
$#  sigxx     sigyy     sigzz     sigxy     sigyz     sigxz
 4.311e+10 1.779e+10 1.620e+10-3.235e-04-1.498e-05 1.699e+09
$#    eps
 0.000e+00
*INITIAL_STRESS_SOLID
$#    eid    nint   nhisv   large     ics   ncomp
       215       1       0       0       0       0
$#  sigxx     sigyy     sigzz     sigxy     sigyz     sigxz
 3.251e+10 1.162e+10 6.240e+09 3.207e-04 3.011e-05 3.372e+09
$#    eps
 0.000e+00
*INITIAL_STRESS_SOLID
$#    eid    nint   nhisv   large     ics   ncomp
       216       1       0       0       0       0
$#  sigxx     sigyy     sigzz     sigxy     sigyz     sigxz
 1.502e+10 1.450e+09-1.019e+10-2.136e-04-4.358e-05 4.991e+09
$#    eps
 0.000e+00
*INITIAL_STRESS_SOLID
$#    eid    nint   nhisv   large     ics   ncomp
       217       1       0       0       0       0
$#  sigxx     sigyy     sigzz     sigxy     sigyz     sigxz
-9.065e+09-1.257e+10-3.283e+10-1.025e-04 1.001e-07 6.532e+09
$#    eps
 0.000e+00
*INITIAL_STRESS_SOLID
$#    eid    nint   nhisv   large     ics   ncomp
       218       1       0       0       0       0
$#  sigxx     sigyy     sigzz     sigxy     sigyz     sigxz
-3.938e+10-3.021e+10-6.132e+10 1.991e-04 7.023e-05 7.970e+09
$#    eps
 0.000e+00
*INITIAL_STRESS_SOLID
$#    eid    nint   nhisv   large     ics   ncomp
       219       1       0       0       0       0
$#  sigxx     sigyy     sigzz     sigxy     sigyz     sigxz
-7.544e+10-5.120e+10-9.521e+10-1.896e-04-8.219e-05 9.282e+09
$#    eps
 0.000e+00
*INITIAL_STRESS_SOLID
$#    eid    nint   nhisv   large     ics   ncomp
       220       1       0       0       0       0
$#  sigxx     sigyy     sigzz     sigxy     sigyz     sigxz
-1.167e+11-7.520e+10-1.340e+11 1.786e-04 9.046e-05 1.045e+10
$#    eps
 0.000e+00
*INITIAL_STRESS_SOLID
$#    eid    nint   nhisv   large     ics   ncomp
       221       1       0       0       0       0
$#  sigxx     sigyy     sigzz     sigxy     sigyz     sigxz
-1.625e+11-1.018e+11-1.770e+11-6.402e-05-1.009e-04 1.145e+10
$#    eps
 0.000e+00
*INITIAL_STRESS_SOLID
$#    eid    nint   nhisv   large     ics   ncomp
       222       1       0       0       0       0
$#  sigxx     sigyy     sigzz     sigxy     sigyz     sigxz
-2.120e+11-1.307e+11-2.236e+11-1.025e-04-8.006e-07 1.227e+10
$#    eps
 0.000e+00
*INITIAL_STRESS_SOLID
$#    eid    nint   nhisv   large     ics   ncomp
       223       1       0       0       0       0
$#  sigxx     sigyy     sigzz     sigxy     sigyz     sigxz
-2.646e+11-1.613e+11-2.730e+11 1.394e-04 1.136e-04 1.290e+10
$#    eps
 0.000e+00
*INITIAL_STRESS_SOLID
$#    eid    nint   nhisv   large     ics   ncomp
       224       1       0       0       0       0
$#  sigxx     sigyy     sigzz     sigxy     sigyz     sigxz
-3.194e+11-1.932e+11-3.245e+11-2.274e-04-1.158e-04 1.332e+10
$#    eps
 0.000e+00
*INITIAL_STRESS_SOLID
$#    eid    nint   nhisv   large     ics   ncomp
       225       1       0       0       0       0
$#  sigxx     sigyy     sigzz     sigxy     sigyz     sigxz
-3.756e+11-2.258e+11-3.773e+11 1.100e-04 1.176e-04 1.353e+10
$#    eps
 0.000e+00
*INITIAL_STRESS_SOLID
$#    eid    nint   nhisv   large     ics   ncomp
       226       1       0       0       0       0
$#  sigxx     sigyy     sigzz     sigxy     sigyz     sigxz
-4.321e+11-2.588e+11-4.304e+11 1.025e-04 0.000e+00 1.353e+10
$#    eps
 0.000e+00
*INITIAL_STRESS_SOLID
$#    eid    nint   nhisv   large     ics   ncomp
       227       1       0       0       0       0
$#  sigxx     sigyy     sigzz     sigxy     sigyz     sigxz
-4.883e+11-2.914e+11-4.832e+11-1.826e-04-1.174e-04 1.332e+10
$#    eps
 0.000e+00
*INITIAL_STRESS_SOLID
$#    eid    nint   nhisv   large     ics   ncomp
       228       1       0       0       0       0
$#  sigxx     sigyy     sigzz     sigxy     sigyz     sigxz
-5.431e+11-3.233e+11-5.347e+11 6.556e-05 1.136e-04 1.290e+10
$#    eps
 0.000e+00
*INITIAL_STRESS_SOLID
$#    eid    nint   nhisv   large     ics   ncomp
       229       1       0       0       0       0
$#  sigxx     sigyy     sigzz     sigxy     sigyz     sigxz
-5.957e+11-3.539e+11-5.841e+11-1.025e-04 3.203e-06 1.227e+10
$#    eps
 0.000e+00
*INITIAL_STRESS_SOLID
$#    eid    nint   nhisv   large     ics   ncomp
       230       1       0       0       0       0
$#  sigxx     sigyy     sigzz     sigxy     sigyz     sigxz
-6.452e+11-3.828e+11-6.307e+11 6.402e-05-1.041e-04 1.145e+10
$#    eps
 0.000e+00
*INITIAL_STRESS_SOLID
$#    eid    nint   nhisv   large     ics   ncomp
       231       1       0       0       0       0
$#  sigxx     sigyy     sigzz     sigxy     sigyz     sigxz
-6.910e+11-4.094e+11-6.737e+11 2.632e-05 9.527e-05 1.045e+10
$#    eps
 0.000e+00
*INITIAL_STRESS_SOLID
$#    eid    nint   nhisv   large     ics   ncomp
       232       1       0       0       0       0
$#  sigxx     sigyy     sigzz     sigxy     sigyz     sigxz
-7.323e+11-4.334e+11-7.125e+11-1.538e-05-8.499e-05 9.282e+09
$#    eps
 0.000e+00
*INITIAL_STRESS_SOLID
$#    eid    nint   nhisv   large     ics   ncomp
       233       1       0       0       0       0
$#  sigxx     sigyy     sigzz     sigxy     sigyz     sigxz
-7.683e+11-4.544e+11-7.464e+11 1.025e-04 0.000e+00 7.970e+09
$#    eps
 0.000e+00
*INITIAL_STRESS_SOLID
$#    eid    nint   nhisv   large     ics   ncomp
       234       1       0       0       0       0
$#  sigxx     sigyy     sigzz     sigxy     sigyz     sigxz
-7.986e+11-4.720e+11-7.749e+11-2.072e-04 5.756e-05 6.532e+09
$#    eps
 0.000e+00
*INITIAL_STRESS_SOLID
$#    eid    nint   nhisv   large     ics   ncomp
       235       1       0       0       0       0
$#  sigxx     sigyy     sigzz     sigxy     sigyz     sigxz
-8.227e+11-4.861e+11-7.975e+11 8.611e-06-5.039e-05 4.991e+09
$#    eps
 0.000e+00
*INITIAL_STRESS_SOLID
$#    eid    nint   nhisv   large     ics   ncomp
       236       1       0       0       0       0
$#  sigxx     sigyy     sigzz     sigxy     sigyz     sigxz
-8.402e+11-4.962e+11-8.139e+11 2.050e-04 0.000e+00 3.372e+09
$#    eps
 0.000e+00
*INITIAL_STRESS_SOLID
$#    eid    nint   nhisv   large     ics   ncomp
       237       1       0       0       0       0
$#  sigxx     sigyy     sigzz     sigxy     sigyz     sigxz
-8.508e+11-5.024e+11-8.239e+11-3.235e-04 2.138e-05 1.699e+09
$#    eps
 0.000e+00
*INITIAL_STRESS_SOLID
$#    eid    nint   nhisv   large     ics   ncomp
       238       1       0       0       0       0
$#  sigxx     sigyy     sigzz     sigxy     sigyz     sigxz
-8.095e+11-4.853e+11-8.083e+11-2.057e-04 6.562e-06-2.412e+09
$#    eps
 0.000e+00
*INITIAL_STRESS_SOLID
$#    eid    nint   nhisv   large     ics   ncomp
       239       1       0       0       0       0
$#  sigxx     sigyy     sigzz     sigxy     sigyz     sigxz
-8.077e+11-4.846e+11-8.077e+11-1.025e-04 0.000e+00 8.608e-04
$#    eps
 0.000e+00
*INITIAL_STRESS_SOLID
$#    eid    nint   nhisv   large     ics   ncomp
       240       1       0       0       0       0
$#  sigxx     sigyy     sigzz     sigxy     sigyz     sigxz
-8.077e+11-4.846e+11-8.077e+11-1.537e-04 0.000e+00-1.291e-03
$#    eps
 0.000e+00
*INITIAL_STRESS_SOLID
$#    eid    nint   nhisv   large     ics   ncomp
       241       1       0       0       0       0
$#  sigxx     sigyy     sigzz     sigxy     sigyz     sigxz
-8.077e+11-4.846e+11-8.077e+11 1.537e-04 0.000e+00 1.291e-03
$#    eps
 0.000e+00
*INITIAL_STRESS_SOLID
$#    eid    nint   nhisv   large     ics   ncomp
       242       1       0       0       0       0
$#  sigxx     sigyy     sigzz     sigxy     sigyz     sigxz
-8.077e+11-4.846e+11-8.077e+11-1.025e-04 0.000e+00-2.583e-03
$#    eps
 0.000e+00
*INITIAL_STRESS_SOLID
$#    eid    nint   nhisv   large     ics   ncomp
       243       1       0       0       0       0
$#  sigxx     sigyy     sigzz     sigxy     sigyz     sigxz
-8.077e+11-4.846e+11-8.077e+11 5.124e-05 0.000e+00 4.304e-04
$#    eps
 0.000e+00
*INITIAL_STRESS_SOLID
$#    eid    nint   nhisv   large     ics   ncomp
       244       1       0       0       0       0
$#  sigxx     sigyy     sigzz     sigxy     sigyz     sigxz
-8.077e+11-4.846e+11-8.077e+11 5.124e-05 0.000e+00 2.152e-03
$#    eps
 0.000e+00
*INITIAL_STRESS_SOLID
$#    eid    nint   nhisv   large     ics   ncomp
       245       1       0       0       0       0
$#  sigxx     sigyy     sigzz     sigxy     sigyz     sigxz
-8.077e+11-4.846e+11-8.077e+11-1.025e-04 0.000e+00-8.608e-04
$#    eps
 0.000e+00
*INITIAL_STRESS_SOLID
$#    eid    nint   nhisv   large     ics   ncomp
       246       1       0       0       0       0
$#  sigxx     sigyy     sigzz     sigxy     sigyz     sigxz
-8.077e+11-4.846e+11-8.077e+11-2.562e-05 0.000e+00 2.152e-04
$#    eps
 0.000e+00
*INITIAL_STRESS_SOLID
$#    eid    nint   nhisv   large     ics   ncomp
       247       1       0       0       0       0
$#  sigxx     sigyy     sigzz     sigxy     sigyz     sigxz
-8.077e+11-4.846e+11-8.077e+11 2.050e-04 0.000e+00 1.722e-03
$#    eps
 0.000e+00
*INITIAL_STRESS_SOLID
$#    eid    nint   nhisv   large     ics   ncomp
       248       1       0       0       0       0
$#  sigxx     sigyy     sigzz     sigxy     sigyz     sigxz
-8.077e+11-4.846e+11-8.077e+11 0.000e+00 0.000e+00 3.443e-03
$#    eps
 0.000e+00
*INITIAL_STRESS_SOLID
$#    eid    nint   nhisv   large     ics   ncomp
       249       1       0       0       0       0
$#  sigxx     sigyy     sigzz     sigxy     sigyz     sigxz
-8.077e+11-4.846e+11-8.077e+11-1.281e-05 0.000e+00 3.336e-03
$#    eps
 0.000e+00
*INITIAL_STRESS_SOLID
$#    eid    nint   nhisv   large     ics   ncomp
       250       1       0       0       0       0
$#  sigxx     sigyy     sigzz     sigxy     sigyz     sigxz
-8.077e+11-4.846e+11-8.077e+11-2.050e-04 0.000e+00-1.722e-03
$#    eps
 0.000e+00
*INITIAL_STRESS_SOLID
$#    eid    nint   nhisv   large     ics   ncomp
       251       1       0       0       0       0
$#  sigxx     sigyy     sigzz     sigxy     sigyz     sigxz
-4.484e-05-2.690e-05-4.484e-05 0.000e+00 0.000e+00 0.000e+00
$#    eps
 0.000e+00
*INITIAL_STRESS_SOLID
$#    eid    nint   nhisv   large     ics   ncomp
       252       1       0       0       0       0
$#  sigxx     sigyy     sigzz     sigxy     sigyz     sigxz
-4.484e-05-2.690e-05-4.484e-05 0.000e+00 0.000e+00-6.372e-20
$#    eps
 0.000e+00
*INITIAL_STRESS_SOLID
$#    eid    nint   nhisv   large     ics   ncomp
       253       1       0       0       0       0
$#  sigxx     sigyy     sigzz     sigxy     sigyz     sigxz
-3.139e-05-1.345e-05-1.345e-05 0.000e+00 6.372e-20 3.186e-20
$#    eps
 0.000e+00
*INITIAL_STRESS_SOLID
$#    eid    nint   nhisv   large     ics   ncomp
       254       1       0       0       0       0
$#  sigxx     sigyy     sigzz     sigxy     sigyz     sigxz
-3.139e-05-1.345e-05-1.345e-05 0.000e+00 6.372e-20 0.000e+00
$#    eps
 0.000e+00
*INITIAL_STRESS_SOLID
$#    eid    nint   nhisv   large     ics   ncomp
       255       1       0       0       0       0
$#  sigxx     sigyy     sigzz     sigxy     sigyz     sigxz
-4.484e-05-2.690e-05-4.484e-05 0.000e+00 0.000e+00 0.000e+00
$#    eps
 0.000e+00
*INITIAL_STRESS_SOLID
$#    eid    nint   nhisv   large     ics   ncomp
       256       1       0       0       0       0
$#  sigxx     sigyy     sigzz     sigxy     sigyz     sigxz
 2.690e-05 6.277e-05 2.690e-05 0.000e+00 0.000e+00 0.000e+00
$#    eps
 0.000e+00
*INITIAL_STRESS_SOLID
$#    eid    nint   nhisv   large     ics   ncomp
       257       1       0       0       0       0
$#  sigxx     sigyy     sigzz     sigxy     sigyz     sigxz
-3.139e-05-1.345e-05-1.345e-05 0.000e+00 6.372e-20 6.372e-20
$#    eps
 0.000e+00
*INITIAL_STRESS_SOLID
$#    eid    nint   nhisv   large     ics   ncomp
       258       1       0       0       0       0
$#  sigxx     sigyy     sigzz     sigxy     sigyz     sigxz
-3.139e-05-1.345e-05-1.345e-05 0.000e+00 6.372e-20-2.549e-19
$#    eps
 0.000e+00
*INITIAL_STRESS_SOLID
$#    eid    nint   nhisv   large     ics   ncomp
       259       1       0       0       0       0
$#  sigxx     sigyy     sigzz     sigxy     sigyz     sigxz
 2.690e-05 6.277e-05 2.690e-05 0.000e+00 0.000e+00 0.000e+00
$#    eps
 0.000e+00
*INITIAL_STRESS_SOLID
$#    eid    nint   nhisv   large     ics   ncomp
       260       1       0       0       0       0
$#  sigxx     sigyy     sigzz     sigxy     sigyz     sigxz
-3.139e-05-1.345e-05-1.345e-05 0.000e+00 6.372e-20 6.372e-20
$#    eps
 0.000e+00
*INITIAL_STRESS_SOLID
$#    eid    nint   nhisv   large     ics   ncomp
       261       1       0       0       0       0
$#  sigxx     sigyy     sigzz     sigxy     sigyz     sigxz
-4.484e-05-2.690e-05-4.484e-05 0.000e+00 0.000e+00-6.372e-20
$#    eps
 0.000e+00
*INITIAL_STRESS_SOLID
$#    eid    nint   nhisv   large     ics   ncomp
       262       1       0       0       0       0
$#  sigxx     sigyy     sigzz     sigxy     sigyz     sigxz
 2.690e-05 6.277e-05 2.690e-05 0.000e+00 0.000e+00 0.000e+00
$#    eps
 0.000e+00
*INITIAL_STRESS_SOLID
$#    eid    nint   nhisv   large     ics   ncomp
       263       1       0       0       0       0
$#  sigxx     sigyy     sigzz     sigxy     sigyz     sigxz
 1.841e+09 7.208e+08 5.614e+08-1.025e-04-2.002e-07-2.412e+09
$#    eps
 0.000e+00
*INITIAL_STRESS_SOLID
$#    eid    nint   nhisv   large     ics   ncomp
       264       1       0       0       0       0
$#  sigxx     sigyy     sigzz     sigxy     sigyz     sigxz
 4.311e+10 1.779e+10 1.620e+10-3.235e-04-1.498e-05 1.699e+09
$#    eps
 0.000e+00
*INITIAL_STRESS_SOLID
$#    eid    nint   nhisv   large     ics   ncomp
       265       1       0       0       0       0
$#  sigxx     sigyy     sigzz     sigxy     sigyz     sigxz
 3.251e+10 1.162e+10 6.240e+09 3.207e-04 3.011e-05 3.372e+09
$#    eps
 0.000e+00
*INITIAL_STRESS_SOLID
$#    eid    nint   nhisv   large     ics   ncomp
       266       1       0       0       0       0
$#  sigxx     sigyy     sigzz     sigxy     sigyz     sigxz
 1.502e+10 1.450e+09-1.019e+10-2.136e-04-4.358e-05 4.991e+09
$#    eps
 0.000e+00
*INITIAL_STRESS_SOLID
$#    eid    nint   nhisv   large     ics   ncomp
       267       1       0       0       0       0
$#  sigxx     sigyy     sigzz     sigxy     sigyz     sigxz
-9.065e+09-1.257e+10-3.283e+10-1.025e-04 1.001e-07 6.532e+09
$#    eps
 0.000e+00
*INITIAL_STRESS_SOLID
$#    eid    nint   nhisv   large     ics   ncomp
       268       1       0       0       0       0
$#  sigxx     sigyy     sigzz     sigxy     sigyz     sigxz
-3.938e+10-3.021e+10-6.132e+10 1.991e-04 7.023e-05 7.970e+09
$#    eps
 0.000e+00
*INITIAL_STRESS_SOLID
$#    eid    nint   nhisv   large     ics   ncomp
       269       1       0       0       0       0
$#  sigxx     sigyy     sigzz     sigxy     sigyz     sigxz
-7.544e+10-5.120e+10-9.521e+10-1.896e-04-8.219e-05 9.282e+09
$#    eps
 0.000e+00
*INITIAL_STRESS_SOLID
$#    eid    nint   nhisv   large     ics   ncomp
       270       1       0       0       0       0
$#  sigxx     sigyy     sigzz     sigxy     sigyz     sigxz
-1.167e+11-7.520e+10-1.340e+11 1.786e-04 9.046e-05 1.045e+10
$#    eps
 0.000e+00
*INITIAL_STRESS_SOLID
$#    eid    nint   nhisv   large     ics   ncomp
       271       1       0       0       0       0
$#  sigxx     sigyy     sigzz     sigxy     sigyz     sigxz
-1.625e+11-1.018e+11-1.770e+11-6.402e-05-1.009e-04 1.145e+10
$#    eps
 0.000e+00
*INITIAL_STRESS_SOLID
$#    eid    nint   nhisv   large     ics   ncomp
       272       1       0       0       0       0
$#  sigxx     sigyy     sigzz     sigxy     sigyz     sigxz
-2.120e+11-1.307e+11-2.236e+11-1.025e-04-8.006e-07 1.227e+10
$#    eps
 0.000e+00
*INITIAL_STRESS_SOLID
$#    eid    nint   nhisv   large     ics   ncomp
       273       1       0       0       0       0
$#  sigxx     sigyy     sigzz     sigxy     sigyz     sigxz
-2.646e+11-1.613e+11-2.730e+11 1.394e-04 1.136e-04 1.290e+10
$#    eps
 0.000e+00
*INITIAL_STRESS_SOLID
$#    eid    nint   nhisv   large     ics   ncomp
       274       1       0       0       0       0
$#  sigxx     sigyy     sigzz     sigxy     sigyz     sigxz
-3.194e+11-1.932e+11-3.245e+11-2.274e-04-1.158e-04 1.332e+10
$#    eps
 0.000e+00
*INITIAL_STRESS_SOLID
$#    eid    nint   nhisv   large     ics   ncomp
       275       1       0       0       0       0
$#  sigxx     sigyy     sigzz     sigxy     sigyz     sigxz
-3.756e+11-2.258e+11-3.773e+11 1.100e-04 1.176e-04 1.353e+10
$#    eps
 0.000e+00
*INITIAL_STRESS_SOLID
$#    eid    nint   nhisv   large     ics   ncomp
       276       1       0       0       0       0
$#  sigxx     sigyy     sigzz     sigxy     sigyz     sigxz
-4.321e+11-2.588e+11-4.304e+11 1.025e-04-6.372e-20 1.353e+10
$#    eps
 0.000e+00
*INITIAL_STRESS_SOLID
$#    eid    nint   nhisv   large     ics   ncomp
       277       1       0       0       0       0
$#  sigxx     sigyy     sigzz     sigxy     sigyz     sigxz
-4.883e+11-2.914e+11-4.832e+11-1.826e-04-1.174e-04 1.332e+10
$#    eps
 0.000e+00
*INITIAL_STRESS_SOLID
$#    eid    nint   nhisv   large     ics   ncomp
       278       1       0       0       0       0
$#  sigxx     sigyy     sigzz     sigxy     sigyz     sigxz
-5.431e+11-3.233e+11-5.347e+11 6.556e-05 1.136e-04 1.290e+10
$#    eps
 0.000e+00
*INITIAL_STRESS_SOLID
$#    eid    nint   nhisv   large     ics   ncomp
       279       1       0       0       0       0
$#  sigxx     sigyy     sigzz     sigxy     sigyz     sigxz
-5.957e+11-3.539e+11-5.841e+11-1.025e-04 3.203e-06 1.227e+10
$#    eps
 0.000e+00
*INITIAL_STRESS_SOLID
$#    eid    nint   nhisv   large     ics   ncomp
       280       1       0       0       0       0
$#  sigxx     sigyy     sigzz     sigxy     sigyz     sigxz
-6.452e+11-3.828e+11-6.307e+11 6.402e-05-1.041e-04 1.145e+10
$#    eps
 0.000e+00
*INITIAL_STRESS_SOLID
$#    eid    nint   nhisv   large     ics   ncomp
       281       1       0       0       0       0
$#  sigxx     sigyy     sigzz     sigxy     sigyz     sigxz
-6.910e+11-4.094e+11-6.737e+11 2.632e-05 9.527e-05 1.045e+10
$#    eps
 0.000e+00
*INITIAL_STRESS_SOLID
$#    eid    nint   nhisv   large     ics   ncomp
       282       1       0       0       0       0
$#  sigxx     sigyy     sigzz     sigxy     sigyz     sigxz
-7.323e+11-4.334e+11-7.125e+11-1.538e-05-8.499e-05 9.282e+09
$#    eps
 0.000e+00
*INITIAL_STRESS_SOLID
$#    eid    nint   nhisv   large     ics   ncomp
       283       1       0       0       0       0
$#  sigxx     sigyy     sigzz     sigxy     sigyz     sigxz
-7.683e+11-4.544e+11-7.464e+11 1.025e-04 0.000e+00 7.970e+09
$#    eps
 0.000e+00
*INITIAL_STRESS_SOLID
$#    eid    nint   nhisv   large     ics   ncomp
       284       1       0       0       0       0
$#  sigxx     sigyy     sigzz     sigxy     sigyz     sigxz
-7.986e+11-4.720e+11-7.749e+11-2.072e-04 5.756e-05 6.532e+09
$#    eps
 0.000e+00
*INITIAL_STRESS_SOLID
$#    eid    nint   nhisv   large     ics   ncomp
       285       1       0       0       0       0
$#  sigxx     sigyy     sigzz     sigxy     sigyz     sigxz
-8.227e+11-4.861e+11-7.975e+11 8.611e-06-5.039e-05 4.991e+09
$#    eps
 0.000e+00
*INITIAL_STRESS_SOLID
$#    eid    nint   nhisv   large     ics   ncomp
       286       1       0       0       0       0
$#  sigxx     sigyy     sigzz     sigxy     sigyz     sigxz
-8.402e+11-4.962e+11-8.139e+11 2.050e-04 0.000e+00 3.372e+09
$#    eps
 0.000e+00
*INITIAL_STRESS_SOLID
$#    eid    nint   nhisv   large     ics   ncomp
       287       1       0       0       0       0
$#  sigxx     sigyy     sigzz     sigxy     sigyz     sigxz
-8.508e+11-5.024e+11-8.239e+11-3.235e-04 2.138e-05 1.699e+09
$#    eps
 0.000e+00
*INITIAL_STRESS_SOLID
$#    eid    nint   nhisv   large     ics   ncomp
       288       1       0       0       0       0
$#  sigxx     sigyy     sigzz     sigxy     sigyz     sigxz
-8.095e+11-4.853e+11-8.083e+11-2.057e-04 6.562e-06-2.412e+09
$#    eps
 0.000e+00
*INITIAL_STRESS_SOLID
$#    eid    nint   nhisv   large     ics   ncomp
       289       1       0       0       0       0
$#  sigxx     sigyy     sigzz     sigxy     sigyz     sigxz
-8.077e+11-4.846e+11-8.077e+11-1.025e-04 0.000e+00 8.608e-04
$#    eps
 0.000e+00
*INITIAL_STRESS_SOLID
$#    eid    nint   nhisv   large     ics   ncomp
       290       1       0       0       0       0
$#  sigxx     sigyy     sigzz     sigxy     sigyz     sigxz
-8.077e+11-4.846e+11-8.077e+11-1.537e-04 0.000e+00-1.291e-03
$#    eps
 0.000e+00
*INITIAL_STRESS_SOLID
$#    eid    nint   nhisv   large     ics   ncomp
       291       1       0       0       0       0
$#  sigxx     sigyy     sigzz     sigxy     sigyz     sigxz
-8.077e+11-4.846e+11-8.077e+11 1.537e-04 0.000e+00 1.291e-03
$#    eps
 0.000e+00
*INITIAL_STRESS_SOLID
$#    eid    nint   nhisv   large     ics   ncomp
       292       1       0       0       0       0
$#  sigxx     sigyy     sigzz     sigxy     sigyz     sigxz
-8.077e+11-4.846e+11-8.077e+11-1.025e-04 6.372e-20-2.583e-03
$#    eps
 0.000e+00
*INITIAL_STRESS_SOLID
$#    eid    nint   nhisv   large     ics   ncomp
       293       1       0       0       0       0
$#  sigxx     sigyy     sigzz     sigxy     sigyz     sigxz
-8.077e+11-4.846e+11-8.077e+11 5.124e-05 0.000e+00 4.304e-04
$#    eps
 0.000e+00
*INITIAL_STRESS_SOLID
$#    eid    nint   nhisv   large     ics   ncomp
       294       1       0       0       0       0
$#  sigxx     sigyy     sigzz     sigxy     sigyz     sigxz
-8.077e+11-4.846e+11-8.077e+11 5.124e-05 0.000e+00 2.152e-03
$#    eps
 0.000e+00
*INITIAL_STRESS_SOLID
$#    eid    nint   nhisv   large     ics   ncomp
       295       1       0       0       0       0
$#  sigxx     sigyy     sigzz     sigxy     sigyz     sigxz
-8.077e+11-4.846e+11-8.077e+11-1.025e-04-6.372e-20-8.608e-04
$#    eps
 0.000e+00
*INITIAL_STRESS_SOLID
$#    eid    nint   nhisv   large     ics   ncomp
       296       1       0       0       0       0
$#  sigxx     sigyy     sigzz     sigxy     sigyz     sigxz
-8.077e+11-4.846e+11-8.077e+11-2.562e-05 0.000e+00 2.152e-04
$#    eps
 0.000e+00
*INITIAL_STRESS_SOLID
$#    eid    nint   nhisv   large     ics   ncomp
       297       1       0       0       0       0
$#  sigxx     sigyy     sigzz     sigxy     sigyz     sigxz
-8.077e+11-4.846e+11-8.077e+11 2.050e-04-6.372e-20 1.722e-03
$#    eps
 0.000e+00
*INITIAL_STRESS_SOLID
$#    eid    nint   nhisv   large     ics   ncomp
       298       1       0       0       0       0
$#  sigxx     sigyy     sigzz     sigxy     sigyz     sigxz
-8.077e+11-4.846e+11-8.077e+11 0.000e+00 0.000e+00 3.443e-03
$#    eps
 0.000e+00
*INITIAL_STRESS_SOLID
$#    eid    nint   nhisv   large     ics   ncomp
       299       1       0       0       0       0
$#  sigxx     sigyy     sigzz     sigxy     sigyz     sigxz
-8.077e+11-4.846e+11-8.077e+11-1.281e-05 0.000e+00 3.336e-03
$#    eps
 0.000e+00
*INITIAL_STRESS_SOLID
$#    eid    nint   nhisv   large     ics   ncomp
       300       1       0       0       0       0
$#  sigxx     sigyy     sigzz     sigxy     sigyz     sigxz
-8.077e+11-4.846e+11-8.077e+11-2.050e-04-6.372e-20-1.722e-03
$#    eps
 0.000e+00
*INITIAL_STRESS_SOLID
$#    eid    nint   nhisv   large     ics   ncomp
       301       1       0       0       0       0
$#  sigxx     sigyy     sigzz     sigxy     sigyz     sigxz
[...]
-3.815e+11-2.284e+11-3.798e+11 5.359e-06 8.358e-05-1.332e+10
$#    eps
 0.000e+00
*INITIAL_STRESS_SOLID
$#    eid    nint   nhisv   large     ics   ncomp
      3676       1       0       0       0       0
$#  sigxx     sigyy     sigzz     sigxy     sigyz     sigxz
-4.262e+11-2.562e+11-4.279e+11 0.000e+00-3.203e-06-1.332e+10
$#    eps
 0.000e+00
*INITIAL_STRESS_SOLID
$#    eid    nint   nhisv   large     ics   ncomp
      3677       1       0       0       0       0
$#  sigxx     sigyy     sigzz     sigxy     sigyz     sigxz
-4.706e+11-2.839e+11-4.756e+11 1.599e-05-8.704e-05-1.311e+10
$#    eps
 0.000e+00
*INITIAL_STRESS_SOLID
$#    eid    nint   nhisv   large     ics   ncomp
      3678       1       0       0       0       0
$#  sigxx     sigyy     sigzz     sigxy     sigyz     sigxz
-5.140e+11-3.109e+11-5.222e+11-1.289e-04 8.117e-05-1.269e+10
$#    eps
 0.000e+00
*INITIAL_STRESS_SOLID
$#    eid    nint   nhisv   large     ics   ncomp
      3679       1       0       0       0       0
$#  sigxx     sigyy     sigzz     sigxy     sigyz     sigxz
-5.556e+11-3.367e+11-5.669e+11 0.000e+00 0.000e+00-1.208e+10
$#    eps
 0.000e+00
*INITIAL_STRESS_SOLID
$#    eid    nint   nhisv   large     ics   ncomp
      3680       1       0       0       0       0
$#  sigxx     sigyy     sigzz     sigxy     sigyz     sigxz
-5.948e+11-3.612e+11-6.091e+11-5.675e-05-6.886e-05-1.127e+10
$#    eps
 0.000e+00
*INITIAL_STRESS_SOLID
$#    eid    nint   nhisv   large     ics   ncomp
      3681       1       0       0       0       0
$#  sigxx     sigyy     sigzz     sigxy     sigyz     sigxz
-6.310e+11-3.837e+11-6.480e+11-1.569e-04 6.896e-05-1.028e+10
$#    eps
 0.000e+00
*INITIAL_STRESS_SOLID
$#    eid    nint   nhisv   large     ics   ncomp
      3682       1       0       0       0       0
$#  sigxx     sigyy     sigzz     sigxy     sigyz     sigxz
-6.636e+11-4.040e+11-6.831e+11-4.027e-05-5.842e-05-9.136e+09
$#    eps
 0.000e+00
*INITIAL_STRESS_SOLID
$#    eid    nint   nhisv   large     ics   ncomp
      3683       1       0       0       0       0
$#  sigxx     sigyy     sigzz     sigxy     sigyz     sigxz
-6.921e+11-4.218e+11-7.137e+11 1.025e-04 6.405e-06-7.845e+09
$#    eps
 0.000e+00
*INITIAL_STRESS_SOLID
$#    eid    nint   nhisv   large     ics   ncomp
      3684       1       0       0       0       0
$#  sigxx     sigyy     sigzz     sigxy     sigyz     sigxz
-7.161e+11-4.367e+11-7.395e+11 2.769e-05 4.112e-05-6.430e+09
$#    eps
 0.000e+00
*INITIAL_STRESS_SOLID
$#    eid    nint   nhisv   large     ics   ncomp
      3685       1       0       0       0       0
$#  sigxx     sigyy     sigzz     sigxy     sigyz     sigxz
-7.352e+11-4.485e+11-7.600e+11 7.935e-05-3.142e-05-4.913e+09
$#    eps
 0.000e+00
*INITIAL_STRESS_SOLID
$#    eid    nint   nhisv   large     ics   ncomp
      3686       1       0       0       0       0
$#  sigxx     sigyy     sigzz     sigxy     sigyz     sigxz
-7.490e+11-4.571e+11-7.748e+11 2.050e-04 0.000e+00-3.319e+09
$#    eps
 0.000e+00
*INITIAL_STRESS_SOLID
$#    eid    nint   nhisv   large     ics   ncomp
      3687       1       0       0       0       0
$#  sigxx     sigyy     sigzz     sigxy     sigyz     sigxz
-7.574e+11-4.624e+11-7.839e+11-8.467e-05 1.070e-05-1.673e+09
$#    eps
 0.000e+00
*INITIAL_STRESS_SOLID
$#    eid    nint   nhisv   large     ics   ncomp
      3688       1       0       0       0       0
$#  sigxx     sigyy     sigzz     sigxy     sigyz     sigxz
-8.056e+11-4.836e+11-8.066e+11-3.067e-04 1.121e-07-2.447e+09
$#    eps
 0.000e+00
*INITIAL_STRESS_SOLID
$#    eid    nint   nhisv   large     ics   ncomp
      3689       1       0       0       0       0
$#  sigxx     sigyy     sigzz     sigxy     sigyz     sigxz
-8.077e+11-4.846e+11-8.077e+11-1.025e-04 0.000e+00 8.608e-04
$#    eps
 0.000e+00
*INITIAL_STRESS_SOLID
$#    eid    nint   nhisv   large     ics   ncomp
      3690       1       0       0       0       0
$#  sigxx     sigyy     sigzz     sigxy     sigyz     sigxz
-8.077e+11-4.846e+11-8.077e+11-1.537e-04 0.000e+00-1.291e-03
$#    eps
 0.000e+00
*INITIAL_STRESS_SOLID
$#    eid    nint   nhisv   large     ics   ncomp
      3691       1       0       0       0       0
$#  sigxx     sigyy     sigzz     sigxy     sigyz     sigxz
-8.077e+11-4.846e+11-8.077e+11 1.537e-04 0.000e+00 1.291e-03
$#    eps
 0.000e+00
*INITIAL_STRESS_SOLID
$#    eid    nint   nhisv   large     ics   ncomp
      3692       1       0       0       0       0
$#  sigxx     sigyy     sigzz     sigxy     sigyz     sigxz
-8.077e+11-4.846e+11-8.077e+11-1.025e-04 0.000e+00-2.583e-03
$#    eps
 0.000e+00
*INITIAL_STRESS_SOLID
$#    eid    nint   nhisv   large     ics   ncomp
      3693       1       0       0       0       0
$#  sigxx     sigyy     sigzz     sigxy     sigyz     sigxz
-8.077e+11-4.846e+11-8.077e+11 5.124e-05 0.000e+00 4.304e-04
$#    eps
 0.000e+00
*INITIAL_STRESS_SOLID
$#    eid    nint   nhisv   large     ics   ncomp
      3694       1       0       0       0       0
$#  sigxx     sigyy     sigzz     sigxy     sigyz     sigxz
-8.077e+11-4.846e+11-8.077e+11 5.124e-05 0.000e+00 2.152e-03
$#    eps
 0.000e+00
*INITIAL_STRESS_SOLID
$#    eid    nint   nhisv   large     ics   ncomp
      3695       1       0       0       0       0
$#  sigxx     sigyy     sigzz     sigxy     sigyz     sigxz
-8.077e+11-4.846e+11-8.077e+11-1.025e-04 0.000e+00-8.608e-04
$#    eps
 0.000e+00
*INITIAL_STRESS_SOLID
$#    eid    nint   nhisv   large     ics   ncomp
      3696       1       0       0       0       0
$#  sigxx     sigyy     sigzz     sigxy     sigyz     sigxz
-8.077e+11-4.846e+11-8.077e+11-2.562e-05 0.000e+00 2.152e-04
$#    eps
 0.000e+00
*INITIAL_STRESS_SOLID
$#    eid    nint   nhisv   large     ics   ncomp
      3697       1       0       0       0       0
$#  sigxx     sigyy     sigzz     sigxy     sigyz     sigxz
-8.077e+11-4.846e+11-8.077e+11 2.050e-04 0.000e+00 1.722e-03
$#    eps
 0.000e+00
*INITIAL_STRESS_SOLID
$#    eid    nint   nhisv   large     ics   ncomp
      3698       1       0       0       0       0
$#  sigxx     sigyy     sigzz     sigxy     sigyz     sigxz
-8.077e+11-4.846e+11-8.077e+11 0.000e+00 0.000e+00 3.443e-03
$#    eps
 0.000e+00
*INITIAL_STRESS_SOLID
$#    eid    nint   nhisv   large     ics   ncomp
      3699       1       0       0       0       0
$#  sigxx     sigyy     sigzz     sigxy     sigyz     sigxz
-8.077e+11-4.846e+11-8.077e+11-1.281e-05 0.000e+00 3.336e-03
$#    eps
 0.000e+00
*INITIAL_STRESS_SOLID
$#    eid    nint   nhisv   large     ics   ncomp
      3700       1       0       0       0       0
$#  sigxx     sigyy     sigzz     sigxy     sigyz     sigxz
-8.077e+11-4.846e+11-8.077e+11-2.050e-04 0.000e+00-1.722e-03
$#    eps
 0.000e+00
*INITIAL_STRESS_SOLID
$#    eid    nint   nhisv   large     ics   ncomp
      3701       1       0       0       0       0
$#  sigxx     sigyy     sigzz     sigxy     sigyz     sigxz
 0.000e+00 0.000e+00 0.000e+00 0.000e+00 0.000e+00 0.000e+00
$#    eps
 0.000e+00
*INITIAL_STRESS_SOLID
$#    eid    nint   nhisv   large     ics   ncomp
      3702       1       0       0       0       0
$#  sigxx     sigyy     sigzz     sigxy     sigyz     sigxz
 0.000e+00 0.000e+00 0.000e+00 0.000e+00 0.000e+00 0.000e+00
$#    eps
 0.000e+00
*INITIAL_STRESS_SOLID
$#    eid    nint   nhisv   large     ics   ncomp
      3703       1       0       0       0       0
$#  sigxx     sigyy     sigzz     sigxy     sigyz     sigxz
 0.000e+00 0.000e+00 0.000e+00 0.000e+00 0.000e+00 0.000e+00
$#    eps
 0.000e+00
*INITIAL_STRESS_SOLID
$#    eid    nint   nhisv   large     ics   ncomp
      3704       1       0       0       0       0
$#  sigxx     sigyy     sigzz     sigxy     sigyz     sigxz
-3.139e-05-1.345e-05-1.345e-05 0.000e+00 0.000e+00 0.000e+00
$#    eps
 0.000e+00
*INITIAL_STRESS_SOLID
$#    eid    nint   nhisv   large     ics   ncomp
      3705       1       0       0       0       0
$#  sigxx     sigyy     sigzz     sigxy     sigyz     sigxz
-1.345e-05-3.139e-05-1.345e-05 3.982e-21 0.000e+00 0.000e+00
$#    eps
 0.000e+00
*INITIAL_STRESS_SOLID
$#    eid    nint   nhisv   large     ics   ncomp
      3706       1       0       0       0       0
$#  sigxx     sigyy     sigzz     sigxy     sigyz     sigxz
-7.174e-05-7.174e-05-8.967e-05 0.000e+00 0.000e+00-3.186e-20
$#    eps
 0.000e+00
*INITIAL_STRESS_SOLID
$#    eid    nint   nhisv   large     ics   ncomp
      3707       1       0       0       0       0
$#  sigxx     sigyy     sigzz     sigxy     sigyz     sigxz
-3.139e-05-1.345e-05-1.345e-05 7.964e-21 0.000e+00 0.000e+00
$#    eps
 0.000e+00
*INITIAL_STRESS_SOLID
$#    eid    nint   nhisv   large     ics   ncomp
      3708       1       0       0       0       0
$#  sigxx     sigyy     sigzz     sigxy     sigyz     sigxz
-3.139e-05-1.345e-05-1.345e-05-7.964e-21 0.000e+00-2.549e-19
$#    eps
 0.000e+00
*INITIAL_STRESS_SOLID
$#    eid    nint   nhisv   large     ics   ncomp
      3709       1       0       0       0       0
$#  sigxx     sigyy     sigzz     sigxy     sigyz     sigxz
 0.000e+00 0.000e+00 0.000e+00 0.000e+00 0.000e+00 0.000e+00
$#    eps
 0.000e+00
*INITIAL_STRESS_SOLID
$#    eid    nint   nhisv   large     ics   ncomp
      3710       1       0       0       0       0
$#  sigxx     sigyy     sigzz     sigxy     sigyz     sigxz
-3.139e-05-1.345e-05-1.345e-05 7.964e-21 0.000e+00 0.000e+00
$#    eps
 0.000e+00
*INITIAL_STRESS_SOLID
$#    eid    nint   nhisv   large     ics   ncomp
      3711       1       0       0       0       0
$#  sigxx     sigyy     sigzz     sigxy     sigyz     sigxz
 0.000e+00 0.000e+00 0.000e+00 0.000e+00 0.000e+00-6.372e-20
$#    eps
 0.000e+00
*INITIAL_STRESS_SOLID
$#    eid    nint   nhisv   large     ics   ncomp
      3712       1       0       0       0       0
$#  sigxx     sigyy     sigzz     sigxy     sigyz     sigxz
 0.000e+00 0.000e+00 0.000e+00 0.000e+00 0.000e+00 0.000e+00
$#    eps
 0.000e+00
*INITIAL_STRESS_SOLID
$#    eid    nint   nhisv   large     ics   ncomp
      3713       1       0       0       0       0
$#  sigxx     sigyy     sigzz     sigxy     sigyz     sigxz
-2.096e+09-9.665e+08-1.126e+09-2.050e-04 0.000e+00-2.447e+09
$#    eps
 0.000e+00
*INITIAL_STRESS_SOLID
$#    eid    nint   nhisv   large     ics   ncomp
      3714       1       0       0       0       0
$#  sigxx     sigyy     sigzz     sigxy     sigyz     sigxz
-5.032e+10-2.225e+10-2.384e+10-8.467e-05-1.150e-05-1.673e+09
$#    eps
 0.000e+00
*INITIAL_STRESS_SOLID
$#    eid    nint   nhisv   large     ics   ncomp
      3715       1       0       0       0       0
$#  sigxx     sigyy     sigzz     sigxy     sigyz     sigxz
-5.870e+10-2.747e+10-3.285e+10 2.876e-04 2.042e-05-3.319e+09
$#    eps
 0.000e+00
*INITIAL_STRESS_SOLID
$#    eid    nint   nhisv   large     ics   ncomp
      3716       1       0       0       0       0
$#  sigxx     sigyy     sigzz     sigxy     sigyz     sigxz
-7.253e+10-3.607e+10-4.771e+10-7.935e-05-3.062e-05-4.913e+09
$#    eps
 0.000e+00
*INITIAL_STRESS_SOLID
$#    eid    nint   nhisv   large     ics   ncomp
      3717       1       0       0       0       0
$#  sigxx     sigyy     sigzz     sigxy     sigyz     sigxz
-9.159e+10-4.793e+10-6.819e+10 1.025e-04-8.006e-07-6.430e+09
$#    eps
 0.000e+00
*INITIAL_STRESS_SOLID
$#    eid    nint   nhisv   large     ics   ncomp
      3718       1       0       0       0       0
$#  sigxx     sigyy     sigzz     sigxy     sigyz     sigxz
-1.156e+11-6.286e+10-9.397e+10 1.715e-04 5.016e-05-7.845e+09
$#    eps
 0.000e+00
*INITIAL_STRESS_SOLID
$#    eid    nint   nhisv   large     ics   ncomp
      3719       1       0       0       0       0
$#  sigxx     sigyy     sigzz     sigxy     sigyz     sigxz
-1.441e+11-8.062e+10-1.246e+11-1.647e-04-5.842e-05-9.136e+09
$#    eps
 0.000e+00
*INITIAL_STRESS_SOLID
$#    eid    nint   nhisv   large     ics   ncomp
      3720       1       0       0       0       0
$#  sigxx     sigyy     sigzz     sigxy     sigyz     sigxz
-1.767e+11-1.009e+11-1.597e+11-4.808e-05 6.416e-05-1.028e+10
$#    eps
 0.000e+00
*INITIAL_STRESS_SOLID
$#    eid    nint   nhisv   large     ics   ncomp
      3721       1       0       0       0       0
$#  sigxx     sigyy     sigzz     sigxy     sigyz     sigxz
-2.129e+11-1.235e+11-1.986e+11-1.482e-04-7.366e-05-1.127e+10
$#    eps
 0.000e+00
*INITIAL_STRESS_SOLID
$#    eid    nint   nhisv   large     ics   ncomp
      3722       1       0       0       0       0
$#  sigxx     sigyy     sigzz     sigxy     sigyz     sigxz
-2.521e+11-1.479e+11-2.408e+11 0.000e+00-1.601e-06-1.208e+10
$#    eps
 0.000e+00
*INITIAL_STRESS_SOLID
$#    eid    nint   nhisv   large     ics   ncomp
      3723       1       0       0       0       0
$#  sigxx     sigyy     sigzz     sigxy     sigyz     sigxz
-2.937e+11-1.738e+11-2.855e+11-7.611e-05 8.117e-05-1.269e+10
$#    eps
 0.000e+00
*INITIAL_STRESS_SOLID
$#    eid    nint   nhisv   large     ics   ncomp
      3724       1       0       0       0       0
$#  sigxx     sigyy     sigzz     sigxy     sigyz     sigxz
-3.371e+11-2.007e+11-3.321e+11-1.599e-05-8.223e-05-1.311e+10
$#    eps
 0.000e+00
*INITIAL_STRESS_SOLID
$#    eid    nint   nhisv   large     ics   ncomp
      3725       1       0       0       0       0
$#  sigxx     sigyy     sigzz     sigxy     sigyz     sigxz
-3.815e+11-2.284e+11-3.798e+11 5.359e-06 8.358e-05-1.332e+10
$#    eps
 0.000e+00
*INITIAL_STRESS_SOLID
$#    eid    nint   nhisv   large     ics   ncomp
      3726       1       0       0       0       0
$#  sigxx     sigyy     sigzz     sigxy     sigyz     sigxz
-4.262e+11-2.562e+11-4.279e+11 0.000e+00-3.203e-06-1.332e+10
$#    eps
 0.000e+00
*INITIAL_STRESS_SOLID
$#    eid    nint   nhisv   large     ics   ncomp
      3727       1       0       0       0       0
$#  sigxx     sigyy     sigzz     sigxy     sigyz     sigxz
-4.706e+11-2.839e+11-4.756e+11 1.599e-05-8.704e-05-1.311e+10
$#    eps
 0.000e+00
*INITIAL_STRESS_SOLID
$#    eid    nint   nhisv   large     ics   ncomp
      3728       1       0       0       0       0
$#  sigxx     sigyy     sigzz     sigxy     sigyz     sigxz
-5.140e+11-3.109e+11-5.222e+11-1.289e-04 8.117e-05-1.269e+10
$#    eps
 0.000e+00
*INITIAL_STRESS_SOLID
$#    eid    nint   nhisv   large     ics   ncomp
      3729       1       0       0       0       0
$#  sigxx     sigyy     sigzz     sigxy     sigyz     sigxz
-5.556e+11-3.367e+11-5.669e+11 0.000e+00 0.000e+00-1.208e+10
$#    eps
 0.000e+00
*INITIAL_STRESS_SOLID
$#    eid    nint   nhisv   large     ics   ncomp
      3730       1       0       0       0       0
$#  sigxx     sigyy     sigzz     sigxy     sigyz     sigxz
-5.948e+11-3.612e+11-6.091e+11-5.675e-05-6.886e-05-1.127e+10
$#    eps
 0.000e+00
*INITIAL_STRESS_SOLID
$#    eid    nint   nhisv   large     ics   ncomp
      3731       1       0       0       0       0
$#  sigxx     sigyy     sigzz     sigxy     sigyz     sigxz
-6.310e+11-3.837e+11-6.480e+11-1.569e-04 6.896e-05-1.028e+10
$#    eps
 0.000e+00
*INITIAL_STRESS_SOLID
$#    eid    nint   nhisv   large     ics   ncomp
      3732       1       0       0       0       0
$#  sigxx     sigyy     sigzz     sigxy     sigyz     sigxz
-6.636e+11-4.040e+11-6.831e+11-4.027e-05-5.842e-05-9.136e+09
$#    eps
 0.000e+00
*INITIAL_STRESS_SOLID
$#    eid    nint   nhisv   large     ics   ncomp
      3733       1       0       0       0       0
$#  sigxx     sigyy     sigzz     sigxy     sigyz     sigxz
-6.921e+11-4.218e+11-7.137e+11 1.025e-04 6.405e-06-7.845e+09
$#    eps
 0.000e+00
*INITIAL_STRESS_SOLID
$#    eid    nint   nhisv   large     ics   ncomp
      3734       1       0       0       0       0
$#  sigxx     sigyy     sigzz     sigxy     sigyz     sigxz
-7.161e+11-4.367e+11-7.395e+11 2.769e-05 4.112e-05-6.430e+09
$#    eps
 0.000e+00
*INITIAL_STRESS_SOLID
$#    eid    nint   nhisv   large     ics   ncomp
      3735       1       0       0       0       0
$#  sigxx     sigyy     sigzz     sigxy     sigyz     sigxz
-7.352e+11-4.485e+11-7.600e+11 7.935e-05-3.142e-05-4.913e+09
$#    eps
 0.000e+00
*INITIAL_STRESS_SOLID
$#    eid    nint   nhisv   large     ics   ncomp
      3736       1       0       0       0       0
$#  sigxx     sigyy     sigzz     sigxy     sigyz     sigxz
-7.490e+11-4.571e+11-7.748e+11 2.050e-04 0.000e+00-3.319e+09
$#    eps
 0.000e+00
*INITIAL_STRESS_SOLID
$#    eid    nint   nhisv   large     ics   ncomp
      3737       1       0       0       0       0
$#  sigxx     sigyy     sigzz     sigxy     sigyz     sigxz
-7.574e+11-4.624e+11-7.839e+11-8.467e-05 1.070e-05-1.673e+09
$#    eps
 0.000e+00
*INITIAL_STRESS_SOLID
$#    eid    nint   nhisv   large     ics   ncomp
      3738       1       0       0       0       0
$#  sigxx     sigyy     sigzz     sigxy     sigyz     sigxz
-8.056e+11-4.836e+11-8.066e+11-3.067e-04 1.121e-07-2.447e+09
$#    eps
 0.000e+00
*INITIAL_STRESS_SOLID
$#    eid    nint   nhisv   large     ics   ncomp
      3739       1       0       0       0       0
$#  sigxx     sigyy     sigzz     sigxy     sigyz     sigxz
-8.077e+11-4.846e+11-8.077e+11-1.025e-04 0.000e+00 8.608e-04
$#    eps
 0.000e+00
*INITIAL_STRESS_SOLID
$#    eid    nint   nhisv   large     ics   ncomp
      3740       1       0       0       0       0
$#  sigxx     sigyy     sigzz     sigxy     sigyz     sigxz
-8.077e+11-4.846e+11-8.077e+11-1.537e-04 0.000e+00-1.291e-03
$#    eps
 0.000e+00
*INITIAL_STRESS_SOLID
$#    eid    nint   nhisv   large     ics   ncomp
      3741       1       0       0       0       0
$#  sigxx     sigyy     sigzz     sigxy     sigyz     sigxz
-8.077e+11-4.846e+11-8.077e+11 1.537e-04 0.000e+00 1.291e-03
$#    eps
 0.000e+00
*INITIAL_STRESS_SOLID
$#    eid    nint   nhisv   large     ics   ncomp
      3742       1       0       0       0       0
$#  sigxx     sigyy     sigzz     sigxy     sigyz     sigxz
-8.077e+11-4.846e+11-8.077e+11-1.025e-04 0.000e+00-2.583e-03
$#    eps
 0.000e+00
*INITIAL_STRESS_SOLID
$#    eid    nint   nhisv   large     ics   ncomp
      3743       1       0       0       0       0
$#  sigxx     sigyy     sigzz     sigxy     sigyz     sigxz
-8.077e+11-4.846e+11-8.077e+11 5.124e-05 0.000e+00 4.304e-04
$#    eps
 0.000e+00
*INITIAL_STRESS_SOLID
$#    eid    nint   nhisv   large     ics   ncomp
      3744       1       0       0       0       0
$#  sigxx     sigyy     sigzz     sigxy     sigyz     sigxz
-8.077e+11-4.846e+11-8.077e+11 5.124e-05 0.000e+00 2.152e-03
$#    eps
 0.000e+00
*INITIAL_STRESS_SOLID
$#    eid    nint   nhisv   large     ics   ncomp
      3745       1       0       0       0       0
$#  sigxx     sigyy     sigzz     sigxy     sigyz     sigxz
-8.077e+11-4.846e+11-8.077e+11-1.025e-04 0.000e+00-8.608e-04
$#    eps
 0.000e+00
*INITIAL_STRESS_SOLID
$#    eid    nint   nhisv   large     ics   ncomp
      3746       1       0       0       0       0
$#  sigxx     sigyy     sigzz     sigxy     sigyz     sigxz
-8.077e+11-4.846e+11-8.077e+11-2.562e-05 0.000e+00 2.152e-04
$#    eps
 0.000e+00
*INITIAL_STRESS_SOLID
$#    eid    nint   nhisv   large     ics   ncomp
      3747       1       0       0       0       0
$#  sigxx     sigyy     sigzz     sigxy     sigyz     sigxz
-8.077e+11-4.846e+11-8.077e+11 2.050e-04 0.000e+00 1.722e-03
$#    eps
 0.000e+00
*INITIAL_STRESS_SOLID
$#    eid    nint   nhisv   large     ics   ncomp
      3748       1       0       0       0       0
$#  sigxx     sigyy     sigzz     sigxy     sigyz     sigxz
-8.077e+11-4.846e+11-8.077e+11 0.000e+00 0.000e+00 3.443e-03
$#    eps
 0.000e+00
*INITIAL_STRESS_SOLID
$#    eid    nint   nhisv   large     ics   ncomp
      3749       1       0       0       0       0
$#  sigxx     sigyy     sigzz     sigxy     sigyz     sigxz
-8.077e+11-4.846e+11-8.077e+11-1.281e-05 0.000e+00 3.336e-03
$#    eps
 0.000e+00
*INITIAL_STRESS_SOLID
$#    eid    nint   nhisv   large     ics   ncomp
      3750       1       0       0       0       0
$#  sigxx     sigyy     sigzz     sigxy     sigyz     sigxz
-8.077e+11-4.846e+11-8.077e+11-2.050e-04 0.000e+00-1.722e-03
$#    eps
 0.000e+00
*END
