$# Block mesh 20x20x2 for star emboss test
$# 50x50x4 = 10000 elements, 13005 nodes
*KEYWORD
*NODE
       1  0.0000000e+000  0.0000000e+000  0.0000000e+000
       2  4.0000000e-001  0.0000000e+000  0.0000000e+000
       3  8.0000000e-001  0.0000000e+000  0.0000000e+000
       4  1.2000000e+000  0.0000000e+000  0.0000000e+000
       5  1.6000000e+000  0.0000000e+000  0.0000000e+000
       6  2.0000000e+000  0.0000000e+000  0.0000000e+000
       7  2.4000000e+000  0.0000000e+000  0.0000000e+000
       8  2.8000000e+000  0.0000000e+000  0.0000000e+000
       9  3.2000000e+000  0.0000000e+000  0.0000000e+000
      10  3.6000000e+000  0.0000000e+000  0.0000000e+000
      11  4.0000000e+000  0.0000000e+000  0.0000000e+000
      12  4.4000000e+000  0.0000000e+000  0.0000000e+000
      13  4.8000000e+000  0.0000000e+000  0.0000000e+000
      14  5.2000000e+000  0.0000000e+000  0.0000000e+000
      15  5.6000000e+000  0.0000000e+000  0.0000000e+000
      16  6.0000000e+000  0.0000000e+000  0.0000000e+000
      17  6.4000000e+000  0.0000000e+000  0.0000000e+000
      18  6.8000000e+000  0.0000000e+000  0.0000000e+000
      19  7.2000000e+000  0.0000000e+000  0.0000000e+000
      20  7.6000000e+000  0.0000000e+000  0.0000000e+000
$ ... 12985 like lines cut
*ELEMENT_SOLID
       1       1       1       2      53      52    2602    2603    2654    2653
       2       1       2       3      54      53    2603    2604    2655    2654
       3       1       3       4      55      54    2604    2605    2656    2655
       4       1       4       5      56      55    2605    2606    2657    2656
       5       1       5       6      57      56    2606    2607    2658    2657
       6       1       6       7      58      57    2607    2608    2659    2658
       7       1       7       8      59      58    2608    2609    2660    2659
       8       1       8       9      60      59    2609    2610    2661    2660
       9       1       9      10      61      60    2610    2611    2662    2661
      10       1      10      11      62      61    2611    2612    2663    2662
      11       1      11      12      63      62    2612    2613    2664    2663
      12       1      12      13      64      63    2613    2614    2665    2664
      13       1      13      14      65      64    2614    2615    2666    2665
      14       1      14      15      66      65    2615    2616    2667    2666
      15       1      15      16      67      66    2616    2617    2668    2667
      16       1      16      17      68      67    2617    2618    2669    2668
      17       1      17      18      69      68    2618    2619    2670    2669
      18       1      18      19      70      69    2619    2620    2671    2670
      19       1      19      20      71      70    2620    2621    2672    2671
      20       1      20      21      72      71    2621    2622    2673    2672
$ ... 9980 like lines cut
*MAT_ELASTIC
$#     mid        ro         e        pr
         1  7.85E-09  2.10E+05       0.3
*SECTION_SOLID
$#  secid    elform
         1         1
*PART
Block
$#     pid     secid       mid
         1         1         1
*END