*KEYWORD
*TITLE
Simple Bolt - Single Radius CNRB Example
$
$ Cylindrical bolt hole: R=3.0, axis=Z, Z=0/5/10
$ Center (PNODE): (50, 50, 5)
$ 8 nodes per Z-level (3 levels = 24 hole nodes)
$
*NODE
$      NID               X               Y               Z      TC      RC
         2      53.000000      50.000000       0.000000       0       0
         3      52.121320      52.121320       0.000000       0       0
         4      50.000000      53.000000       0.000000       0       0
         5      47.878680      52.121320       0.000000       0       0
         6      47.000000      50.000000       0.000000       0       0
         7      47.878680      47.878680       0.000000       0       0
         8      50.000000      47.000000       0.000000       0       0
         9      52.121320      47.878680       0.000000       0       0
        10      53.000000      50.000000       5.000000       0       0
        11      52.121320      52.121320       5.000000       0       0
        12      50.000000      53.000000       5.000000       0       0
        13      47.878680      52.121320       5.000000       0       0
        14      47.000000      50.000000       5.000000       0       0
        15      47.878680      47.878680       5.000000       0       0
        16      50.000000      47.000000       5.000000       0       0
        17      52.121320      47.878680       5.000000       0       0
        18      53.000000      50.000000      10.000000       0       0
        19      52.121320      52.121320      10.000000       0       0
        20      50.000000      53.000000      10.000000       0       0
        21      47.878680      52.121320      10.000000       0       0
$ ... 4 like lines cut
*ELEMENT_SHELL
       1       1       2       3      11      10
       2       1       3       4      12      11
       3       1       4       5      13      12
       4       1       5       6      14      13
       5       1       6       7      15      14
       6       1       7       8      16      15
       7       1       8       9      17      16
       8       1       9       2      10      17
       9       1      10      11      19      18
      10       1      11      12      20      19
      11       1      12      13      21      20
      12       1      13      14      22      21
      13       1      14      15      23      22
      14       1      15      16      24      23
      15       1      16      17      25      24
      16       1      17      10      18      25
*PART
Shell_Structure
         1         1         1
*SECTION_SHELL
         1         2
    0.5000    0.5000    0.5000    0.5000
*MAT_ELASTIC
         1  7.85E-09  210000.0      0.30
*SET_NODE_LIST_TITLE
Bolt_NodeSet
         1       0.0       0.0       0.0       0.0
         2         3         4         5         6         7         8         9
        10        11        12        13        14        15        16        17
        18        19        20        21        22        23        24        25
*CONTROL_TERMINATION
1.0000e-03         01.0000e-100.0000e+001.0000e+07         0
$$ --- CNRB2SOLID: PID=200 ---
*NODE
      26  5.08991000e+01  4.91009000e+01  0.00000000e+00       0       0
      27  5.00000000e+01  4.91009000e+01  0.00000000e+00       0       0
      28  4.91009000e+01  4.91009000e+01  0.00000000e+00       0       0
      29  5.08991000e+01  5.00000000e+01  0.00000000e+00       0       0
      30  5.00000000e+01  5.00000000e+01  0.00000000e+00       0       0
      31  4.91009000e+01  5.00000000e+01  0.00000000e+00       0       0
      32  5.08991000e+01  5.08991000e+01  0.00000000e+00       0       0
      33  5.00000000e+01  5.08991000e+01  0.00000000e+00       0       0
      34  4.91009000e+01  5.08991000e+01  0.00000000e+00       0       0
      35  5.21191990e+01  4.78808010e+01  0.00000000e+00       0       0
      36  5.29970000e+01  5.00000000e+01  0.00000000e+00       0       0
      37  5.21191990e+01  5.21191990e+01  0.00000000e+00       0       0
      38  5.00000000e+01  5.29970000e+01  0.00000000e+00       0       0
      39  4.78808010e+01  5.21191990e+01  0.00000000e+00       0       0
      40  4.70030000e+01  5.00000000e+01  0.00000000e+00       0       0
      41  4.78808010e+01  4.78808010e+01  0.00000000e+00       0       0
      42  5.00000000e+01  4.70030000e+01  0.00000000e+00       0       0
      43  5.08991000e+01  4.91009000e+01  5.00000000e+00       0       0
      44  5.00000000e+01  4.91009000e+01  5.00000000e+00       0       0
      45  4.91009000e+01  4.91009000e+01  5.00000000e+00       0       0
$ ... 31 like lines cut
*ELEMENT_SOLID
      17     200      26      29      30      27      43      46      47      44
      18     200      27      30      31      28      44      47      48      45
      19     200      29      32      33      30      46      49      50      47
      20     200      30      33      34      31      47      50      51      48
      21     200      35      36      29      26      52      53      46      43
      22     200      36      37      32      29      53      54      49      46
      23     200      37      38      33      32      54      55      50      49
      24     200      38      39      34      33      55      56      51      50
      25     200      39      40      31      34      56      57      48      51
      26     200      40      41      28      31      57      58      45      48
      27     200      41      42      27      28      58      59      44      45
      28     200      42      35      26      27      59      52      43      44
      29     200      43      46      47      44      60      63      64      61
      30     200      44      47      48      45      61      64      65      62
      31     200      46      49      50      47      63      66      67      64
      32     200      47      50      51      48      64      67      68      65
      33     200      52      53      46      43      69      70      63      60
      34     200      53      54      49      46      70      71      66      63
      35     200      54      55      50      49      71      72      67      66
      36     200      55      56      51      50      72      73      68      67
$ ... 4 like lines cut
*PART
Bolt_M6_Solid
       200       201       201
*SECTION_SOLID_TITLE
CNRB_200_Section
       201         1
*MAT_ELASTIC_TITLE
CNRB_200_Material
       2017.8500E-092.0000E+053.0000E-01
*SET_NODE_LIST_TITLE
Tied_CNRB_200
       201       0.0       0.0       0.0       0.0
         2         3         4         5         6         7         8         9
        10        11        12        13        14        15        16        17
        18        19        20        21        22        23        24        25
*CONTACT_TIED_SURFACE_TO_SURFACE_OFFSET_ID
         1                                            Tied_CNRB_200
       201       200         4         3         0         0         0         0
       0.0       0.0       0.0       0.0       0.0         0      0.011.0000E+20
       1.0       1.0       0.0       0.0       1.0       1.0       1.0       1.0
*END
