$
$ LS-DYNA Keyword File
$ Generated by KooRemapper
$ Date: 2026-01-11 08:52:52
$
*NODE
$#   nid               x               y               z
       1 0.000000000e+00-1.000000000e+01-1.000000000e+01
       2 5.000000000e+00-1.000000000e+01-1.000000000e+01
       3 1.000000000e+01-1.000000000e+01-1.000000000e+01
       4 1.500000000e+01-1.000000000e+01-1.000000000e+01
       5 2.000000000e+01-1.000000000e+01-1.000000000e+01
       6 2.500000000e+01-1.000000000e+01-1.000000000e+01
       7 3.000000000e+01-1.000000000e+01-1.000000000e+01
       8 3.500000000e+01-1.000000000e+01-1.000000000e+01
       9 4.000000000e+01-1.000000000e+01-1.000000000e+01
      10 4.500000000e+01-1.000000000e+01-1.000000000e+01
      11 5.000000000e+01-1.000000000e+01-1.000000000e+01
      12 5.500000000e+01-1.000000000e+01-1.000000000e+01
      13 6.000000000e+01-1.000000000e+01-1.000000000e+01
      14 6.500000000e+01-1.000000000e+01-1.000000000e+01
      15 7.000000000e+01-1.000000000e+01-1.000000000e+01
      16 7.500000000e+01-1.000000000e+01-1.000000000e+01
      17 8.000000000e+01-1.000000000e+01-1.000000000e+01
      18 8.500000000e+01-1.000000000e+01-1.000000000e+01
      19 9.000000000e+01-1.000000000e+01-1.000000000e+01
      20 9.500000000e+01-1.000000000e+01-1.000000000e+01
$ ... 2068 like lines cut
*ELEMENT_SOLID
$#   eid     pid      n1      n2      n3      n4      n5      n6      n7      n8
       1       1       1       2      23      22     232     233     254     253
       2       1       2       3      24      23     233     234     255     254
       3       1       3       4      25      24     234     235     256     255
       4       1       4       5      26      25     235     236     257     256
       5       1       5       6      27      26     236     237     258     257
       6       1       6       7      28      27     237     238     259     258
       7       1       7       8      29      28     238     239     260     259
       8       1       8       9      30      29     239     240     261     260
       9       1       9      10      31      30     240     241     262     261
      10       1      10      11      32      31     241     242     263     262
      11       1      11      12      33      32     242     243     264     263
      12       1      12      13      34      33     243     244     265     264
      13       1      13      14      35      34     244     245     266     265
      14       1      14      15      36      35     245     246     267     266
      15       1      15      16      37      36     246     247     268     267
      16       1      16      17      38      37     247     248     269     268
      17       1      17      18      39      38     248     249     270     269
      18       1      18      19      40      39     249     250     271     270
      19       1      19      20      41      40     250     251     272     271
      20       1      20      21      42      41     251     252     273     272
$ ... 580 like lines cut
*ELEMENT_SHELL
       1      10     925     927     929     931
       2      10     925     927     933     935
       3      10     925     931     937     935
       4      10     927     939     941     929
       5      10     927     939     943     933
       6      10     939     945     947     941
       7      10     939     945     949     943
       8      10     945     951     953     947
       9      10     945     951     955     949
      10      10     951     957     959     953
      11      10     951     957     961     955
      12      10     957     963     965     959
      13      10     957     963     967     961
      14      10     963     969     971     965
      15      10     963     969     973     967
      16      10     969     975     977     971
      17      10     969     975     979     973
      18      10     975     981     983     977
      19      10     975     981     985     979
      20      10     981     987     989     983
$ ... 560 like lines cut
*PART
"TShell_Offset"
        10         1         1
*SECTION_TSHELL
$#   secid    elform      shrf       nip     propt   qr/irid     icomp     setyp
         1        16         0         3
$#      t1        t2        t3        t4      nloc     marea      idof    edgset
 1.500e+00 1.500e+00 1.500e+00 1.500e+00
*MAT_ELASTIC
$#     mid        ro         e        pr
              1       2.0     12000       0.25
*END
