*KEYWORD
*TITLE
ALE Shell Warning Test
$
*NODE
       1  0.000000  0.000000  0.000000
       2  1.000000  0.000000  0.000000
       3  1.000000  1.000000  0.000000
       4  0.000000  1.000000  0.000000
$
*ELEMENT_SHELL
       1       1       1       2       3       4
$
*PART
Shell part
         1         1         1         0         0         0         0         0
$
*SECTION_SHELL
         1         2  1.000000
$
*MAT_ELASTIC
         1  7.85E-09  2.10E+05  3.00E-01
$
*END
