*KEYWORD
*TITLE
ALE Existing Control Test
$
*NODE
       1  0.000000  0.000000  0.000000
       2  1.000000  0.000000  0.000000
       3  1.000000  1.000000  0.000000
       4  0.000000  1.000000  0.000000
       5  0.000000  0.000000  1.000000
       6  1.000000  0.000000  1.000000
       7  1.000000  1.000000  1.000000
       8  0.000000  1.000000  1.000000
$
*ELEMENT_SOLID
       1       1       1       2       3       4       5       6       7       8
$
*PART
ALE air
         1         1         1         0         0         0         0         0
$
*SECTION_SOLID
         1        11
$
*MAT_NULL
         1 1.293E-12  0.000000  0.000000  0.000000  0.000000  0.000000  0.000000
*EOS_LINEAR_POLYNOMIAL
         1  0.000000  0.000000  0.000000  0.000000  0.400000  0.400000  0.000000
2.5330E-01  1.000000
$
*CONTROL_ALE
$      DCT      NADV      METH      AFAC      BFAC      CFAC      DFAC      EFAC
         1         1         2  0.000000  0.000000  0.000000  0.000000  0.000000
$
*ALE_MULTI-MATERIAL_GROUP
$      SID    IDTYPE
         1         1
$
*END
