*KEYWORD
*TITLE
ALE Shared Section Test
$
*NODE
       1  0.000000  0.000000  0.000000
       2  1.000000  0.000000  0.000000
       3  1.000000  1.000000  0.000000
       4  0.000000  1.000000  0.000000
       5  0.000000  0.000000  1.000000
       6  1.000000  0.000000  1.000000
       7  1.000000  1.000000  1.000000
       8  0.000000  1.000000  1.000000
       9  2.000000  0.000000  0.000000
      10  2.000000  1.000000  0.000000
      11  2.000000  0.000000  1.000000
      12  2.000000  1.000000  1.000000
$
*ELEMENT_SOLID
       1       1       1       2       3       4       5       6       7       8
       2       2       2       9      10       3       6      11      12       7
$
*PART
Structure (shared sec)
         1         1         1         0         0         0         0         0
*PART
Air domain (shared sec)
         2         1         2         0         0         0         0         0
$
*SECTION_SOLID
         1         1
$
*MAT_ELASTIC
         1  7.85E-09  2.10E+05  3.00E-01
*MAT_ELASTIC
         2  1.29E-12  1.01E-01  0.00E+00
$
*END
