*KEYWORD
*TITLE
ALE Part Title Test
$
*NODE
       1  0.000000  0.000000  0.000000
       2  1.000000  0.000000  0.000000
       3  1.000000  1.000000  0.000000
       4  0.000000  1.000000  0.000000
       5  0.000000  0.000000  1.000000
       6  1.000000  0.000000  1.000000
       7  1.000000  1.000000  1.000000
       8  0.000000  1.000000  1.000000
$
*ELEMENT_SOLID
       1       1       1       2       3       4       5       6       7       8
$
*PART_TITLE
Fluid region (with _TITLE suffix)
         1         1         1         0         0         0         0         0
$
*SECTION_SOLID
         1         2
$
*MAT_ELASTIC
         1  7.85E-09  2.10E+05  3.00E-01
$
*END
