$# Simple flat plate mesh for warpage testing
$# 100mm x 100mm x 2mm plate, 10x10 elements
*KEYWORD
*PART
Flat Plate
$#     pid     secid       mid     eosid      hgid      grav    adpopt      tmid
         1         1         1
*SECTION_SOLID
$#   secid    elform       aet
         1         1
*MAT_ELASTIC
$#     mid        ro         e        pr
         1   7.85000   2.10E+05      0.30
*NODE
$#   nid               x               y               z
       1       0.000000       0.000000      -1.000000
       2      10.000000       0.000000      -1.000000
       3      20.000000       0.000000      -1.000000
       4      30.000000       0.000000      -1.000000
       5      40.000000       0.000000      -1.000000
       6      50.000000       0.000000      -1.000000
       7      60.000000       0.000000      -1.000000
       8      70.000000       0.000000      -1.000000
       9      80.000000       0.000000      -1.000000
      10      90.000000       0.000000      -1.000000
      11     100.000000       0.000000      -1.000000
      12       0.000000      10.000000      -1.000000
      13      10.000000      10.000000      -1.000000
      14      20.000000      10.000000      -1.000000
      15      30.000000      10.000000      -1.000000
      16      40.000000      10.000000      -1.000000
      17      50.000000      10.000000      -1.000000
      18      60.000000      10.000000      -1.000000
      19      70.000000      10.000000      -1.000000
      20      80.000000      10.000000      -1.000000
$ ... 222 like lines cut
*ELEMENT_SOLID
$#   eid     pid      n1      n2      n3      n4      n5      n6      n7      n8
       1       1       1       2      13      12     122     123     134     133
       2       1       2       3      14      13     123     124     135     134
       3       1       3       4      15      14     124     125     136     135
       4       1       4       5      16      15     125     126     137     136
       5       1       5       6      17      16     126     127     138     137
       6       1       6       7      18      17     127     128     139     138
       7       1       7       8      19      18     128     129     140     139
       8       1       8       9      20      19     129     130     141     140
       9       1       9      10      21      20     130     131     142     141
      10       1      10      11      22      21     131     132     143     142
      11       1      12      13      24      23     133     134     145     144
      12       1      13      14      25      24     134     135     146     145
      13       1      14      15      26      25     135     136     147     146
      14       1      15      16      27      26     136     137     148     147
      15       1      16      17      28      27     137     138     149     148
      16       1      17      18      29      28     138     139     150     149
      17       1      18      19      30      29     139     140     151     150
      18       1      19      20      31      30     140     141     152     151
      19       1      20      21      32      31     141     142     153     152
      20       1      21      22      33      32     142     143     154     153
$ ... 80 like lines cut
*INCLUDE
test4_cylindrical_10x_finite_result.k.dynain
*END
