$# Fine block mesh 10x10x2 for horseshoe indent test
$# X: 0..10, Y: 0..10, Z: 0..2 (0.5mm XY, 1mm Z)
*KEYWORD
*NODE
       1  0.0000000e+000  0.0000000e+000  0.0000000e+000
       2  5.0000000e-001  0.0000000e+000  0.0000000e+000
       3  1.0000000e+000  0.0000000e+000  0.0000000e+000
       4  1.5000000e+000  0.0000000e+000  0.0000000e+000
       5  2.0000000e+000  0.0000000e+000  0.0000000e+000
       6  2.5000000e+000  0.0000000e+000  0.0000000e+000
       7  3.0000000e+000  0.0000000e+000  0.0000000e+000
       8  3.5000000e+000  0.0000000e+000  0.0000000e+000
       9  4.0000000e+000  0.0000000e+000  0.0000000e+000
      10  4.5000000e+000  0.0000000e+000  0.0000000e+000
      11  5.0000000e+000  0.0000000e+000  0.0000000e+000
      12  5.5000000e+000  0.0000000e+000  0.0000000e+000
      13  6.0000000e+000  0.0000000e+000  0.0000000e+000
      14  6.5000000e+000  0.0000000e+000  0.0000000e+000
      15  7.0000000e+000  0.0000000e+000  0.0000000e+000
      16  7.5000000e+000  0.0000000e+000  0.0000000e+000
      17  8.0000000e+000  0.0000000e+000  0.0000000e+000
      18  8.5000000e+000  0.0000000e+000  0.0000000e+000
      19  9.0000000e+000  0.0000000e+000  0.0000000e+000
      20  9.5000000e+000  0.0000000e+000  0.0000000e+000
$ ... 1303 like lines cut
*ELEMENT_SOLID
       1       1       1       2      23      22     442     443     464     463
       2       1       2       3      24      23     443     444     465     464
       3       1       3       4      25      24     444     445     466     465
       4       1       4       5      26      25     445     446     467     466
       5       1       5       6      27      26     446     447     468     467
       6       1       6       7      28      27     447     448     469     468
       7       1       7       8      29      28     448     449     470     469
       8       1       8       9      30      29     449     450     471     470
       9       1       9      10      31      30     450     451     472     471
      10       1      10      11      32      31     451     452     473     472
      11       1      11      12      33      32     452     453     474     473
      12       1      12      13      34      33     453     454     475     474
      13       1      13      14      35      34     454     455     476     475
      14       1      14      15      36      35     455     456     477     476
      15       1      15      16      37      36     456     457     478     477
      16       1      16      17      38      37     457     458     479     478
      17       1      17      18      39      38     458     459     480     479
      18       1      18      19      40      39     459     460     481     480
      19       1      19      20      41      40     460     461     482     481
      20       1      20      21      42      41     461     462     483     482
$ ... 780 like lines cut
*MAT_ELASTIC
$#     mid        ro         e        pr
         1  7.85E-09  2.10E+05       0.3
*SECTION_SOLID
$#  secid    elform
         1         1
*PART
Block
$#     pid     secid       mid
         1         1         1
*END