*KEYWORD
*TITLE
Two TET4 elements sharing one face - for TET10 conversion test
*NODE
$#   nid               x               y               z
       1       0.000000       0.000000       0.000000
       2       1.000000       0.000000       0.000000
       3       0.500000       1.000000       0.000000
       4       0.500000       0.500000       1.000000
       5       0.500000       0.500000      -1.000000
       6 0.000000000e+00 0.000000000e+00 1.000000000e+00
       7 1.000000000e+00 0.000000000e+00 1.000000000e+00
       8 5.000000000e-01 5.000000000e-01 2.000000000e+00
       9 5.000000000e-01 1.000000000e+00 1.000000000e+00
      10 5.000000000e-01 5.000000000e-01 0.000000000e+00
      11 0.000000000e+00 0.000000000e+00 1.000000000e+00
      12 1.000000000e+00 0.000000000e+00 1.000000000e+00
      13 5.000000000e-01 5.000000000e-01 2.000000000e+00
      14 1.000000000e+00 0.000000000e+00 2.000000000e+00
      15 0.000000000e+00 0.000000000e+00 2.000000000e+00
      16 5.000000000e-01 1.000000000e+00 1.000000000e+00
      17 5.000000000e-01 1.000000000e+00 2.000000000e+00
      18 5.000000000e-01 5.000000000e-01 0.000000000e+00
      19 5.000000000e-01 5.000000000e-01 3.000000000e+00
      20 5.000000000e-01 5.000000000e-01 1.000000000e+00
$ ... 20 like lines cut
*ELEMENT_SOLID
$#   eid     pid      n1      n2      n3      n4      n5      n6      n7      n8
       1       1       1       2       3       4       4       4       4       4
       2       1       1       3       2       5       5       5       5       5
       3      10       1       2       4       4       6       7       8       8
       4      10       6      10      10      10       1       5       5       5
       5      10       1       4       4       4       6       8       8       8
       6      10       1       5       5       5       6      10      10      10
       7      10       2       3       4       4       7       9       8       8
       8      10       9      10      10      10       3       5       5       5
       9      10       5       2       5       5      10       7      10      10
      10      10       4       3       4       4       8       9       8       8
      11       2       1       2       4       4      11      12      13      13
      12       2       1       2       7       6      11      12      14      15
      13       2       1       4       4       4      11      13      13      13
      14       2       2       3       4       4      12      16      13      13
      15       2       2       3       9       7      12      16      17      14
      16       2       3       5       5       5      16      18      18      18
      17       2       6       7       8       8      15      14      19      19
      18       2       6       8       8       8      15      19      19      19
      19       2       7       9       8       8      14      17      19      19
      20       2       9      10      10      10      17      20      20      20
$ ... 24 like lines cut
*PART
TET4 part
$#     pid     secid       mid
         1         1         1
*SECTION_SOLID
$#  secid    elform
         1        10
*MAT_ELASTIC
$#     mid        ro         e        pr
         1  7.85E-09    210000       0.3
*PART
"MultiMaterial_Layer"
        10         2         2
*SECTION_SOLID
$#   secid    elform       aet
         2         1
*MAT_ELASTIC
$#     mid        ro         e        pr
              2       1.0     10000       0.25*PART
"MultiMaterial_Layer"
         2         3         3
*SECTION_SOLID
$#   secid    elform       aet
         3         1
*MAT_PLASTIC_KINEMATIC
$#     mid        ro         e        pr      sigy      etan
              3       2.0     15000       0.28       300         0*PART
"MultiMaterial_Layer"
         3         4         4
*SECTION_SOLID
$#   secid    elform       aet
         4         1
*MAT_ELASTIC
$#     mid        ro         e        pr
              4       1.5     12000       0.30*END
