*KEYWORD
3-Point Bending - Rubber Beam TET4
$--- Termination / Timestep ----------------------------
*CONTROL_TERMINATION
$  ENDTIM    ENDCYC     DTMIN    ENDENG    ENDMAS
     1.0         0       0.0       0.0       0.0
*CONTROL_TIMESTEP
$   DTINIT    TSSFAC
       0.0  0.900000
$--- Load curve (ramp 0->1, scaled to -10mm) ----------
*DEFINE_CURVE
$    LCID      SIDR       SFA       SFO      OFFA      OFFO    DATTYP
         1         0       1.0     -10.0       0.0       0.0         0
$                A1                  O1
                 0.0                 0.0
                 1.0                 1.0
$--- Material / Section / Part placeholder (filled by matswap) ---
*MAT_ELASTIC
$      MID       RHO         E        PR        DA        DB
         1  7.85E-09  2.10E+05      0.30       0.0       0.0
*SECTION_SOLID_TITLE
Tet4_Section
$    SECID    ELFORM       AET
         1        13         0
*PART
Rubber_Beam
$      PID     SECID       MID     EOSID      HGID      GRAV    ADPOPT      TMID
         1         1         1         0         0         0         0         0
$--- Boundary: Y-fixed at supports ----------------------
*BOUNDARY_SPC_SET
$    NSID      CID    DOFX    DOFY    DOFZ   DOFRX   DOFRY   DOFRZ
         1         0       0       1       0       0       0       0
*SET_NODE_LIST
$       SID
         1
       1        21       127       147
$--- Boundary: X-fixed at left support ------------------
*BOUNDARY_SPC_SET
$    NSID      CID    DOFX    DOFY    DOFZ   DOFRX   DOFRY   DOFRZ
         2         0       1       0       0       0       0       0
*SET_NODE_LIST
$       SID
         2
       1       127
$--- Boundary: Z-fixed at z=0 face ----------------------
*BOUNDARY_SPC_SET
$    NSID      CID    DOFX    DOFY    DOFZ   DOFRX   DOFRY   DOFRZ
         3         0       0       0       1       0       0       0
*SET_NODE_LIST
$       SID
         3
       1         2         3         4         5         6         7         8
       9        10        11        12        13        14        15        16
      17        18        19        20        21        22        23        24
      25        26        27        28        29        30        31        32
      33        34        35        36        37        38        39        40
      41        42        43        44        45        46        47        48
      49        50        51        52        53        54        55        56
      57        58        59        60        61        62        63
$--- Prescribed displacement at center top (x=50, y=5) --
*BOUNDARY_PRESCRIBED_MOTION_SET
$    NSID       DOF       VAD      LCID        SF       VID     DEATH      BIRTH
         4         2         2         1       1.0         0 1.000E+28       0.0
*SET_NODE_LIST
$       SID
         4
      53       116       179
$--- Nodes -----------------------------------------------
*NODE
       1        0.000000        0.000000        0.000000
       2        5.000000        0.000000        0.000000
       3       10.000000        0.000000        0.000000
       4       15.000000        0.000000        0.000000
       5       20.000000        0.000000        0.000000
       6       25.000000        0.000000        0.000000
       7       30.000000        0.000000        0.000000
       8       35.000000        0.000000        0.000000
       9       40.000000        0.000000        0.000000
      10       45.000000        0.000000        0.000000
      11       50.000000        0.000000        0.000000
      12       55.000000        0.000000        0.000000
      13       60.000000        0.000000        0.000000
      14       65.000000        0.000000        0.000000
      15       70.000000        0.000000        0.000000
      16       75.000000        0.000000        0.000000
      17       80.000000        0.000000        0.000000
      18       85.000000        0.000000        0.000000
      19       90.000000        0.000000        0.000000
      20       95.000000        0.000000        0.000000
$ ... 169 like lines cut
$--- Elements (TET4 as degenerate SOLID) ----------------
*ELEMENT_SOLID
       1       1       1       2      22      64      64      64      64      64
       2       1       2      64      65      86      86      86      86      86
       3       1       2      23      22      86      86      86      86      86
       4       1      22      64      86      85      85      85      85      85
       5       1       2      22      64      86      86      86      86      86
       6       1       2       3      23      65      65      65      65      65
       7       1       3      65      66      87      87      87      87      87
       8       1       3      24      23      87      87      87      87      87
       9       1      23      65      87      86      86      86      86      86
      10       1       3      23      65      87      87      87      87      87
      11       1       3       4      24      66      66      66      66      66
      12       1       4      66      67      88      88      88      88      88
      13       1       4      25      24      88      88      88      88      88
      14       1      24      66      88      87      87      87      87      87
      15       1       4      24      66      88      88      88      88      88
      16       1       4       5      25      67      67      67      67      67
      17       1       5      67      68      89      89      89      89      89
      18       1       5      26      25      89      89      89      89      89
      19       1      25      67      89      88      88      88      88      88
      20       1       5      25      67      89      89      89      89      89
$ ... 380 like lines cut
*END
