*KEYWORD
$ 두 판(PID 500 하판 z=0, PID 700 상판 z=2)을 CNRB(PID 1201) 하나로 묶은 시험 모델 — cnrb2spring 예제
*NODE
       1  0.00000000e+00  0.00000000e+00  0.00000000e+00       0       0
       2  1.00000000e+01  0.00000000e+00  0.00000000e+00       0       0
       3  2.00000000e+01  0.00000000e+00  0.00000000e+00       0       0
       4  0.00000000e+00  1.00000000e+01  0.00000000e+00       0       0
       5  1.00000000e+01  1.00000000e+01  0.00000000e+00       0       0
       6  2.00000000e+01  1.00000000e+01  0.00000000e+00       0       0
       7  0.00000000e+00  2.00000000e+01  0.00000000e+00       0       0
       8  1.00000000e+01  2.00000000e+01  0.00000000e+00       0       0
       9  2.00000000e+01  2.00000000e+01  0.00000000e+00       0       0
      11  0.00000000e+00  0.00000000e+00  2.00000000e+00       0       0
      12  1.00000000e+01  0.00000000e+00  2.00000000e+00       0       0
      13  2.00000000e+01  0.00000000e+00  2.00000000e+00       0       0
      14  0.00000000e+00  1.00000000e+01  2.00000000e+00       0       0
      15  1.00000000e+01  1.00000000e+01  2.00000000e+00       0       0
      16  2.00000000e+01  1.00000000e+01  2.00000000e+00       0       0
      17  0.00000000e+00  2.00000000e+01  2.00000000e+00       0       0
      18  1.00000000e+01  2.00000000e+01  2.00000000e+00       0       0
      19  2.00000000e+01  2.00000000e+01  2.00000000e+00       0       0
*ELEMENT_SHELL
$#   eid     pid      n1      n2      n3      n4
       1     500       1       2       5       4
       2     500       2       3       6       5
       3     500       4       5       8       7
       4     500       5       6       9       8
      11     700      11      12      15      14
      12     700      12      13      16      15
      13     700      14      15      18      17
      14     700      15      16      19      18
*PART
LOWER PLATE
$#     pid     secid       mid
       500       500       500
*SECTION_SHELL
$#   secid    elform
       500         2
       1.0       1.0       1.0       1.0
*MAT_ELASTIC
$#     mid        ro         e        pr
       500   7.85E-9  210000.0       0.3
*PART
UPPER PLATE
$#     pid     secid       mid
       700       700       700
*SECTION_SHELL
$#   secid    elform
       700         2
       1.0       1.0       1.0       1.0
*MAT_ELASTIC
$#     mid        ro         e        pr
       700   7.85E-9  210000.0       0.3
*SET_NODE_LIST_TITLE
bolt 1201 hole nodes
$#     sid
      9001
$#    nid1      nid2      nid3      nid4      nid5      nid6      nid7      nid8
         1         2         4         5        11        12        14        15
*CONSTRAINED_NODAL_RIGID_BODY_TITLE
bolt 1201
$#     pid       cid      nsid     pnode      iprt    drflag    rrflag
      1201         0      9001         0         0         0         0
*END
