$ squeeze 예제 입력 — 2파트 HEX8 블록(PID 1 강철 / PID 2 알루미늄), ex01~ex05 공용
$ 각 파트 2.0 x 2.0 x 1.0 mm / 2x2x1 요소, z 로 0.5 띄워 노드를 공유하지 않는다.
$ *MAT_ELASTIC 두 장이 있어 ex02/ex04/ex05 의 K-파일 재료 경로도 그대로 동작한다.
*KEYWORD
*NODE
$#   nid               x               y               z
       1   0.0000000e+00   0.0000000e+00   0.0000000e+00
       2   1.0000000e+00   0.0000000e+00   0.0000000e+00
       3   2.0000000e+00   0.0000000e+00   0.0000000e+00
       4   0.0000000e+00   1.0000000e+00   0.0000000e+00
       5   1.0000000e+00   1.0000000e+00   0.0000000e+00
       6   2.0000000e+00   1.0000000e+00   0.0000000e+00
       7   0.0000000e+00   2.0000000e+00   0.0000000e+00
       8   1.0000000e+00   2.0000000e+00   0.0000000e+00
       9   2.0000000e+00   2.0000000e+00   0.0000000e+00
      10   0.0000000e+00   0.0000000e+00   1.0000000e+00
      11   1.0000000e+00   0.0000000e+00   1.0000000e+00
      12   2.0000000e+00   0.0000000e+00   1.0000000e+00
      13   0.0000000e+00   1.0000000e+00   1.0000000e+00
      14   1.0000000e+00   1.0000000e+00   1.0000000e+00
      15   2.0000000e+00   1.0000000e+00   1.0000000e+00
      16   0.0000000e+00   2.0000000e+00   1.0000000e+00
      17   1.0000000e+00   2.0000000e+00   1.0000000e+00
      18   2.0000000e+00   2.0000000e+00   1.0000000e+00
      19   0.0000000e+00   0.0000000e+00   1.5000000e+00
      20   1.0000000e+00   0.0000000e+00   1.5000000e+00
$ ... 16 like lines cut
*ELEMENT_SOLID
$#   eid     pid      n1      n2      n3      n4      n5      n6      n7      n8
       1       1       1       2       5       4      10      11      14      13
       2       1       2       3       6       5      11      12      15      14
       3       1       4       5       8       7      13      14      17      16
       4       1       5       6       9       8      14      15      18      17
       5       2      19      20      23      22      28      29      32      31
       6       2      20      21      24      23      29      30      33      32
       7       2      22      23      26      25      31      32      35      34
       8       2      23      24      27      26      32      33      36      35
*PART
Lower_Steel
$#     pid     secid       mid     eosid      hgid      grav    adpopt      tmid
         1         1         1         0         0         0         0         0
*PART
Upper_Aluminum
         2         1         2         0         0         0         0         0
*SECTION_SOLID
$#   secid    elform
         1         1
*MAT_ELASTIC
$#     mid        ro         e        pr
         1  7.85E-09  210000.0       0.3
*MAT_ELASTIC
         2  2.70E-09   70000.0      0.33
*END
