*KEYWORD
*TITLE
Two HEX8 elements sharing one face - for HEX20 conversion test
*NODE
$#   nid               x               y               z
       1       0.000000       0.000000       0.000000
       2       1.000000       0.000000       0.000000
       3       1.000000       1.000000       0.000000
       4       0.000000       1.000000       0.000000
       5       0.000000       0.000000       1.000000
       6       1.000000       0.000000       1.000000
       7       1.000000       1.000000       1.000000
       8       0.000000       1.000000       1.000000
       9       0.000000       0.000000       2.000000
      10       1.000000       0.000000       2.000000
      11       1.000000       1.000000       2.000000
      12       0.000000       1.000000       2.000000
      13 5.000000000e-01 0.000000000e+00 0.000000000e+00
      14 1.000000000e+00 5.000000000e-01 0.000000000e+00
      15 5.000000000e-01 1.000000000e+00 0.000000000e+00
      16 0.000000000e+00 5.000000000e-01 0.000000000e+00
      17 5.000000000e-01 0.000000000e+00 1.000000000e+00
      18 1.000000000e+00 5.000000000e-01 1.000000000e+00
      19 5.000000000e-01 1.000000000e+00 1.000000000e+00
      20 0.000000000e+00 5.000000000e-01 1.000000000e+00
$ ... 12 like lines cut
*ELEMENT_SOLID
$#   eid     pid      n1      n2      n3      n4      n5      n6      n7      n8
       1       1
       1       2       3       4       5       6       7       8      13      14
      15      16      17      18      19      20      21      22      23      24
       2       1
       5       6       7       8       9      10      11      12      17      18
      19      20      25      26      27      28      29      30      31      32
*PART
HEX part
$#     pid     secid       mid
         1         1         1
*SECTION_SOLID
$#  secid    elform
         1        23
*MAT_ELASTIC
$#     mid        ro         e        pr
         1  7.85E-09    210000       0.3
*END
