*KEYWORD
*TITLE
Two TET4 elements sharing one face - for refine test
*NODE
$#   nid               x               y               z
       1       0.000000       0.000000       0.000000
       2       1.000000       0.000000       0.000000
       3       0.500000       1.000000       0.000000
       4       0.500000       0.500000       1.000000
       5       0.500000       0.500000      -1.000000
       6 5.000000000e-01 0.000000000e+00 0.000000000e+00
       7 2.500000000e-01 5.000000000e-01 0.000000000e+00
       8 2.500000000e-01 2.500000000e-01 5.000000000e-01
       9 7.500000000e-01 5.000000000e-01 0.000000000e+00
      10 7.500000000e-01 2.500000000e-01 5.000000000e-01
      11 5.000000000e-01 7.500000000e-01 5.000000000e-01
      12 2.500000000e-01 2.500000000e-01-5.000000000e-01
      13 7.500000000e-01 2.500000000e-01-5.000000000e-01
      14 5.000000000e-01 7.500000000e-01-5.000000000e-01
*ELEMENT_SOLID
$#   eid     pid      n1      n2      n3      n4      n5      n6      n7      n8
       3       1       1       6       7       8       8       8       8       8
       4       1       6       2       9      10      10      10      10      10
       5       1       7       9       3      11      11      11      11      11
       6       1       8      10      11       4       4       4       4       4
       7       1       6       9       7       8       8       8       8       8
       8       1       6       9       8      10      10      10      10      10
       9       1       9      11       8       7       7       7       7       7
      10       1       9      11      10       8       8       8       8       8
      11       1       1       6       7      12      12      12      12      12
      12       1       6       2       9      13      13      13      13      13
      13       1       7       9       3      14      14      14      14      14
      14       1      12      13      14       5       5       5       5       5
      15       1       6       9       7      12      12      12      12      12
      16       1       6       9      12      13      13      13      13      13
      17       1       9      14      12       7       7       7       7       7
      18       1       9      14      13      12      12      12      12      12
*PART
TET part
$#     pid     secid       mid
         1         1         1
*SECTION_SOLID
$#  secid    elform
         1        13
*MAT_ELASTIC
$#     mid        ro         e        pr
         1  7.85E-09    210000       0.3
*END
