*KEYWORD
*TITLE
Two HEX8 elements sharing one face - for HEX20 conversion test
*NODE
$#   nid               x               y               z
       1       0.000000       0.000000       0.000000
       2       1.000000       0.000000       0.000000
       3       1.000000       1.000000       0.000000
       4       0.000000       1.000000       0.000000
       5       0.000000       0.000000       1.000000
       6       1.000000       0.000000       1.000000
       7       1.000000       1.000000       1.000000
       8       0.000000       1.000000       1.000000
       9       0.000000       0.000000       2.000000
      10       1.000000       0.000000       2.000000
      11       1.000000       1.000000       2.000000
      12       0.000000       1.000000       2.000000
      13 0.000000000e+00 0.000000000e+00 3.333333333e-01
      14 0.000000000e+00 0.000000000e+00 6.666666667e-01
      15 0.000000000e+00 3.333333333e-01 0.000000000e+00
      16 0.000000000e+00 3.333333333e-01 3.333333333e-01
      17 0.000000000e+00 3.333333333e-01 6.666666667e-01
      18 0.000000000e+00 3.333333333e-01 1.000000000e+00
      19 0.000000000e+00 6.666666667e-01 0.000000000e+00
      20 0.000000000e+00 6.666666667e-01 3.333333333e-01
$ ... 92 like lines cut
*ELEMENT_SOLID
$#   eid     pid      n1      n2      n3      n4      n5      n6      n7      n8
       3       1       1      25      29      15      13      26      30      16
       4       1      13      26      30      16      14      27      31      17
       5       1      14      27      31      17       5      28      32      18
       6       1      15      29      33      19      16      30      34      20
       7       1      16      30      34      20      17      31      35      21
       8       1      17      31      35      21      18      32      36      22
       9       1      19      33      37       4      20      34      38      23
      10       1      20      34      38      23      21      35      39      24
      11       1      21      35      39      24      22      36      40       8
      12       1      25      41      45      29      26      42      46      30
      13       1      26      42      46      30      27      43      47      31
      14       1      27      43      47      31      28      44      48      32
      15       1      29      45      49      33      30      46      50      34
      16       1      30      46      50      34      31      47      51      35
      17       1      31      47      51      35      32      48      52      36
      18       1      33      49      53      37      34      50      54      38
      19       1      34      50      54      38      35      51      55      39
      20       1      35      51      55      39      36      52      56      40
      21       1      41       2      59      45      42      57      60      46
      22       1      42      57      60      46      43      58      61      47
$ ... 34 like lines cut
*PART
HEX part
$#     pid     secid       mid
         1         1         1
*SECTION_SOLID
$#  secid    elform
         1         1
*MAT_ELASTIC
$#     mid        ro         e        pr
         1  7.85E-09    210000       0.3
*END
