*KEYWORD
*TITLE
Two HEX8 elements sharing one face - for HEX20 conversion test
*NODE
$#   nid               x               y               z
       1       0.000000       0.000000       0.000000
       2       1.000000       0.000000       0.000000
       3       1.000000       1.000000       0.000000
       4       0.000000       1.000000       0.000000
       5       0.000000       0.000000       1.000000
       6       1.000000       0.000000       1.000000
       7       1.000000       1.000000       1.000000
       8       0.000000       1.000000       1.000000
       9       0.000000       0.000000       2.000000
      10       1.000000       0.000000       2.000000
      11       1.000000       1.000000       2.000000
      12       0.000000       1.000000       2.000000
      13 5.000000000e-01 0.000000000e+00 0.000000000e+00
      14 1.000000000e+00 5.000000000e-01 0.000000000e+00
      15 5.000000000e-01 1.000000000e+00 0.000000000e+00
      16 0.000000000e+00 5.000000000e-01 0.000000000e+00
      17 5.000000000e-01 0.000000000e+00 1.000000000e+00
      18 1.000000000e+00 5.000000000e-01 1.000000000e+00
      19 5.000000000e-01 1.000000000e+00 1.000000000e+00
      20 0.000000000e+00 5.000000000e-01 1.000000000e+00
$ ... 25 like lines cut
*ELEMENT_SOLID
$#   eid     pid      n1      n2      n3      n4      n5      n6      n7      n8
       3       1       1      13      25      16      21      29      31      27
       4       1      13       2      14      25      29      22      28      31
       5       1      25      14       3      15      31      28      23      30
       6       1      16      25      15       4      27      31      30      24
       7       1      21      29      31      27       5      17      26      20
       8       1      29      22      28      31      17       6      18      26
       9       1      31      28      23      30      26      18       7      19
      10       1      27      31      30      24      20      26      19       8
      11       1       5      17      26      20      36      43      45      41
      12       1      17       6      18      26      43      37      42      45
      13       1      26      18       7      19      45      42      38      44
      14       1      20      26      19       8      41      45      44      39
      15       1      36      43      45      41       9      32      40      35
      16       1      43      37      42      45      32      10      33      40
      17       1      45      42      38      44      40      33      11      34
      18       1      41      45      44      39      35      40      34      12
*PART
HEX part
$#     pid     secid       mid
         1         1         1
*SECTION_SOLID
$#  secid    elform
         1         1
*MAT_ELASTIC
$#     mid        ro         e        pr
         1  7.85E-09    210000       0.3
*END
