*KEYWORD
*TITLE
Mixed QUAD4 and TRIA3 shell elements - for QUAD8/TRIA6 conversion test
*NODE
$#   nid               x               y               z
       1       0.000000       0.000000       0.000000
       2       1.000000       0.000000       0.000000
       3       1.000000       1.000000       0.000000
       4       0.000000       1.000000       0.000000
       5       2.000000       0.000000       0.000000
       6       2.000000       1.000000       0.000000
       7 5.000000000e-01 0.000000000e+00 0.000000000e+00
       8 1.000000000e+00 5.000000000e-01 0.000000000e+00
       9 5.000000000e-01 1.000000000e+00 0.000000000e+00
      10 0.000000000e+00 5.000000000e-01 0.000000000e+00
      11 5.000000000e-01 5.000000000e-01 0.000000000e+00
      12 1.500000000e+00 0.000000000e+00 0.000000000e+00
      13 2.000000000e+00 5.000000000e-01 0.000000000e+00
      14 1.500000000e+00 1.000000000e+00 0.000000000e+00
      15 1.500000000e+00 5.000000000e-01 0.000000000e+00
      16 5.000000000e-01 5.000000000e-01 0.000000000e+00
*ELEMENT_SHELL
$#   eid     pid      n1      n2      n3      n4
*PART
QUAD4 part
$#     pid     secid       mid
         1         1         1
*PART
TRIA3 part
$#     pid     secid       mid
         2         2         1
*SECTION_SHELL
$#  secid    elform      shrf       nip     propt   qr/irid     icomp
         1         2       1.0         2       0.0         0         0
$#     t1        t2        t3        t4
       1.0       1.0       1.0       1.0
*SECTION_SHELL
$#  secid    elform      shrf       nip     propt   qr/irid     icomp
         2         2       1.0         2       0.0         0         0
$#     t1        t2        t3        t4
       1.0       1.0       1.0       1.0
*MAT_ELASTIC
$#     mid        ro         e        pr
         1  7.85E-09    210000       0.3
*ELEMENT_SHELL
       4       1       1       7      11      10
       5       1       7       2       8      11
       6       1      11       8       3       9
       7       1      10      11       9       4
       8       1       2      12      15       8
       9       1      12       5      13      15
      10       1      15      13       6      14
      11       1       8      15      14       3
      12       2       1       7      16      16
      13       2       7       2       8       8
      14       2      16       8       3       3
      15       2       7       8      16      16
*END
