*KEYWORD
*TITLE
Mixed QUAD4 and TRIA3 shell elements - for QUAD8/TRIA6 conversion test
*NODE
$#   nid               x               y               z
       1       0.000000       0.000000       0.000000
       2       1.000000       0.000000       0.000000
       3       1.000000       1.000000       0.000000
       4       0.000000       1.000000       0.000000
       5       2.000000       0.000000       0.000000
       6       2.000000       1.000000       0.000000
       7 3.333333333e-01 0.000000000e+00 0.000000000e+00
       8 6.666666667e-01 0.000000000e+00 0.000000000e+00
       9 1.000000000e+00 3.333333333e-01 0.000000000e+00
      10 1.000000000e+00 6.666666667e-01 0.000000000e+00
      11 6.666666667e-01 1.000000000e+00 0.000000000e+00
      12 3.333333333e-01 1.000000000e+00 0.000000000e+00
      13 0.000000000e+00 6.666666667e-01 0.000000000e+00
      14 0.000000000e+00 3.333333333e-01 0.000000000e+00
      15 3.333333333e-01 3.333333333e-01 0.000000000e+00
      16 6.666666667e-01 3.333333333e-01 0.000000000e+00
      17 3.333333333e-01 6.666666667e-01 0.000000000e+00
      18 6.666666667e-01 6.666666667e-01 0.000000000e+00
      19 1.333333333e+00 0.000000000e+00 0.000000000e+00
      20 1.666666667e+00 0.000000000e+00 0.000000000e+00
$ ... 11 like lines cut
*ELEMENT_SHELL
$#   eid     pid      n1      n2      n3      n4
*PART
QUAD4 part
$#     pid     secid       mid
         1         1         1
*PART
TRIA3 part
$#     pid     secid       mid
         2         2         1
*SECTION_SHELL
$#  secid    elform      shrf       nip     propt   qr/irid     icomp
         1         2       1.0         2       0.0         0         0
$#     t1        t2        t3        t4
       1.0       1.0       1.0       1.0
*SECTION_SHELL
$#  secid    elform      shrf       nip     propt   qr/irid     icomp
         2         2       1.0         2       0.0         0         0
$#     t1        t2        t3        t4
       1.0       1.0       1.0       1.0
*MAT_ELASTIC
$#     mid        ro         e        pr
         1  7.85E-09    210000       0.3
*ELEMENT_SHELL
       4       1       1       7      15      13
       5       1       7       8      16      15
       6       1       8       2       9      16
       7       1      13      15      17      14
       8       1      15      16      18      17
       9       1      16       9      10      18
      10       1      14      17      12       4
      11       1      17      18      11      12
      12       1      18      10       3      11
      13       1       2      19      25      10
      14       1      19      20      26      25
      15       1      20       5      21      26
      16       1      10      25      27       9
      17       1      25      26      28      27
      18       1      26      21      22      28
      19       1       9      27      24       3
      20       1      27      28      23      24
      21       1      28      22       6      23
      22       2       1       7      30      30
      23       2       8       2       9       9
$ ... 7 like lines cut
*END
