*KEYWORD
*PART
QUAD_REGION
$#     pid     secid       mid
         1         1         1
*PART
TRIA_REGION
$#     pid     secid       mid
         2         1         1
*SECTION_SHELL
$#   secid    elform
         1         2
$#      t1        t2        t3        t4
       1.0       1.0       1.0       1.0
*MAT_ELASTIC
$#     mid        ro         e        pr
         1  7.85E-09  2.10E+05       0.3
*NODE
      37   0.0000000e+00   0.0000000e+00   2.0000000e+00
      38   2.0000000e+00   0.0000000e+00   2.0000000e+00
      39   4.0000000e+00   0.0000000e+00   2.0000000e+00
      40   6.0000000e+00   0.0000000e+00   2.0000000e+00
      41   8.0000000e+00   0.0000000e+00   2.0000000e+00
      42   1.0000000e+01   0.0000000e+00   2.0000000e+00
      43   0.0000000e+00   2.0000000e+00   2.0000000e+00
      44   2.0000000e+00   2.0000000e+00   2.0000000e+00
      45   4.0000000e+00   2.0000000e+00   2.0000000e+00
      46   6.0000000e+00   2.0000000e+00   2.0000000e+00
      47   8.0000000e+00   2.0000000e+00   2.0000000e+00
      48   1.0000000e+01   2.0000000e+00   2.0000000e+00
      49   0.0000000e+00   4.0000000e+00   2.0000000e+00
      50   2.0000000e+00   4.0000000e+00   2.0000000e+00
      51   4.0000000e+00   4.0000000e+00   2.0000000e+00
      52   6.0000000e+00   4.0000000e+00   2.0000000e+00
      53   8.0000000e+00   4.0000000e+00   2.0000000e+00
      54   1.0000000e+01   4.0000000e+00   2.0000000e+00
      55   0.0000000e+00   6.0000000e+00   2.0000000e+00
      56   2.0000000e+00   6.0000000e+00   2.0000000e+00
$ ... 46 like lines cut
*ELEMENT_SHELL
       1       1      37      38      44      43
       2       1      38      39      45      44
       3       1      39      40      46      45
       4       1      40      41      47      46
       5       1      41      42      48      47
       6       1      43      44      50      49
       7       1      44      45      51      50
       8       1      45      46      52      51
       9       1      46      47      53      52
      10       1      47      48      54      53
      11       1      49      50      56      55
      12       1      50      51      57      56
      13       1      51      52      58      57
      14       1      52      53      59      58
      15       1      53      54      60      59
      16       1      55      56      62      61
      17       1      56      57      63      62
      18       1      57      58      64      63
      19       1      58      59      65      64
      20       1      59      60      66      65
$ ... 85 like lines cut
*END
