$# Large HEX8 block for bend testing
$# X: 0..100, Y: 0..50, Z: 0..2
$# Elements: 50x40x5 = 10000
$# Nodes: 12546
$# PID=1, E=210000, nu=0.3
*KEYWORD
*NODE
$#   nid               x               y               z
       1 0.000000000e+00 0.000000000e+00 0.000000000e+00
       2 2.000000000e+00 0.000000000e+00 0.000000000e+00
       3 4.000000000e+00 0.000000000e+00 0.000000000e+00
       4 6.000000000e+00 0.000000000e+00 0.000000000e+00
       5 8.000000000e+00 0.000000000e+00 0.000000000e+00
       6 1.000000000e+01 0.000000000e+00 0.000000000e+00
       7 1.200000000e+01 0.000000000e+00 0.000000000e+00
       8 1.400000000e+01 0.000000000e+00 0.000000000e+00
       9 1.600000000e+01 0.000000000e+00 0.000000000e+00
      10 1.800000000e+01 0.000000000e+00 0.000000000e+00
      11 2.000000000e+01 0.000000000e+00 0.000000000e+00
      12 2.200000000e+01 0.000000000e+00 0.000000000e+00
      13 2.400000000e+01 0.000000000e+00 0.000000000e+00
      14 2.600000000e+01 0.000000000e+00 0.000000000e+00
      15 2.800000000e+01 0.000000000e+00 0.000000000e+00
      16 3.000000000e+01 0.000000000e+00 0.000000000e+00
      17 3.200000000e+01 0.000000000e+00 0.000000000e+00
      18 3.400000000e+01 0.000000000e+00 0.000000000e+00
      19 3.600000000e+01 0.000000000e+00 0.000000000e+00
      20 3.800000000e+01 0.000000000e+00 0.000000000e+00
$ ... 12526 like lines cut
*ELEMENT_SOLID
$#   eid     pid      n1      n2      n3      n4      n5      n6      n7      n8
       1       1       1       2      53      52    2092    2093    2144    2143
       2       1       2       3      54      53    2093    2094    2145    2144
       3       1       3       4      55      54    2094    2095    2146    2145
       4       1       4       5      56      55    2095    2096    2147    2146
       5       1       5       6      57      56    2096    2097    2148    2147
       6       1       6       7      58      57    2097    2098    2149    2148
       7       1       7       8      59      58    2098    2099    2150    2149
       8       1       8       9      60      59    2099    2100    2151    2150
       9       1       9      10      61      60    2100    2101    2152    2151
      10       1      10      11      62      61    2101    2102    2153    2152
      11       1      11      12      63      62    2102    2103    2154    2153
      12       1      12      13      64      63    2103    2104    2155    2154
      13       1      13      14      65      64    2104    2105    2156    2155
      14       1      14      15      66      65    2105    2106    2157    2156
      15       1      15      16      67      66    2106    2107    2158    2157
      16       1      16      17      68      67    2107    2108    2159    2158
      17       1      17      18      69      68    2108    2109    2160    2159
      18       1      18      19      70      69    2109    2110    2161    2160
      19       1      19      20      71      70    2110    2111    2162    2161
      20       1      20      21      72      71    2111    2112    2163    2162
$ ... 9980 like lines cut
*MAT_ELASTIC
$#     mid        ro         e        pr
         1  7.85E-09  2.10E+05       0.3
*SECTION_SOLID
$#  secid    elform
         1         1
*PART
Large block
$#     pid     secid       mid
         1         1         1
*END
