$ Generated by KooRemapper assemble (generate box)
*KEYWORD
*MAT_ELASTIC
$#     mid        ro         e        pr        da        db  not used
         17.8500E-09    210000       0.3       0.0       0.0       0.0
*SECTION_SOLID
$#   secid    elform       aet
         1         1         0
*PART
Base Box
         1         1         1
*NODE
       1   0.0000000E+00   0.0000000E+00   0.0000000E+00
       2   1.0000000E+01   0.0000000E+00   0.0000000E+00
       3   2.0000000E+01   0.0000000E+00   0.0000000E+00
       4   3.0000000E+01   0.0000000E+00   0.0000000E+00
       5   4.0000000E+01   0.0000000E+00   0.0000000E+00
       6   5.0000000E+01   0.0000000E+00   0.0000000E+00
       7   6.0000000E+01   0.0000000E+00   0.0000000E+00
       8   7.0000000E+01   0.0000000E+00   0.0000000E+00
       9   8.0000000E+01   0.0000000E+00   0.0000000E+00
      10   9.0000000E+01   0.0000000E+00   0.0000000E+00
      11   1.0000000E+02   0.0000000E+00   0.0000000E+00
      12   0.0000000E+00   5.0000000E+00   0.0000000E+00
      13   1.0000000E+01   5.0000000E+00   0.0000000E+00
      14   2.0000000E+01   5.0000000E+00   0.0000000E+00
      15   3.0000000E+01   5.0000000E+00   0.0000000E+00
      16   4.0000000E+01   5.0000000E+00   0.0000000E+00
      17   5.0000000E+01   5.0000000E+00   0.0000000E+00
      18   6.0000000E+01   5.0000000E+00   0.0000000E+00
      19   7.0000000E+01   5.0000000E+00   0.0000000E+00
      20   8.0000000E+01   5.0000000E+00   0.0000000E+00
$ ... 145 like lines cut
*ELEMENT_SOLID
      81       2       1       2      13      12     166     167     178     177
      82       2       2       3      14      13     167     168     179     178
      83       2       3       4      15      14     168     169     180     179
      84       2       4       5      16      15     169     170     181     180
      85       2       5       6      17      16     170     171     182     181
      86       2       6       7      18      17     171     172     183     182
      87       2       7       8      19      18     172     173     184     183
      88       2       8       9      20      19     173     174     185     184
      89       2       9      10      21      20     174     175     186     185
      90       2      10      11      22      21     175     176     187     186
      91       2      12      13      24      23     177     178     189     188
      92       2      13      14      25      24     178     179     190     189
      93       2      14      15      26      25     179     180     191     190
      94       2      15      16      27      26     180     181     192     191
      95       2      16      17      28      27     181     182     193     192
      96       2      17      18      29      28     182     183     194     193
      97       2      18      19      30      29     183     184     195     194
      98       2      19      20      31      30     184     185     196     195
      99       2      20      21      32      31     185     186     197     196
     100       2      21      22      33      32     186     187     198     197
$ ... 60 like lines cut
*MAT_ELASTIC
$#     mid        ro         e        pr        da        db  not used
         2  2.70E-09   68900.0      0.33       0.0       0.0       0.0
*SECTION_SOLID
$#  secid    elform
         2         1
*PART
Restack Layer 1
$#     pid     secid       mid
         2         2         0
*SECTION_SOLID
$#  secid    elform
         3         1
*PART
Restack Layer 2
$#     pid     secid       mid
         3         3         0
*CONTROL_TERMINATION
     0.001         0       0.0       0.0       0.0         0
*CONTROL_TIMESTEP
       0.0       0.9         0       0.0       0.0         0         0         0
*CONTROL_ENERGY
         2         2         1         1
*CONTROL_HOURGLASS
         4      0.05
*CONTROL_BULK_VISCOSITY
       1.5      0.06         0
$
$ === DATABASE OUTPUT CONTROL (KooRemapper) ===
$
*DATABASE_GLSTAT
$#        dt    binary      lcur     ioopt
    0.0001         0         0         1
*DATABASE_MATSUM
$#        dt    binary      lcur     ioopt
    0.0001         0         0         1
*DATABASE_NODOUT
$#        dt    binary      lcur     ioopt
    0.0001         0         0         1
*DATABASE_ELOUT
$#        dt    binary      lcur     ioopt
    0.0001         0         0         1
*DATABASE_RCFORC
$#        dt    binary      lcur     ioopt
    0.0001         0         0         1
*DATABASE_SLEOUT
$#        dt    binary      lcur     ioopt
    0.0001         0         0         1
*DATABASE_SPCFORC
$#        dt    binary      lcur     ioopt
    0.0001         0         0         1
*DATABASE_NODFOR
$#        dt    binary      lcur     ioopt
    0.0001         0         0         1
*DATABASE_RWFORC
$#        dt    binary      lcur     ioopt
    0.0001         0         0         1
*DATABASE_SECFORC
$#        dt    binary      lcur     ioopt
    0.0001         0         0         1
*DATABASE_ABSTAT
$#        dt    binary      lcur     ioopt
    0.0001         0         0         1
*DATABASE_SWFORC
$#        dt    binary      lcur     ioopt
    0.0001         0         0         1
*DATABASE_NCFORC
$#        dt    binary      lcur     ioopt
    0.0001         0         0         1
*DATABASE_BINARY_D3PLOT
$#        dt      lcdt      beam     npltc    psetid
     0.001         0         0         0         0
*DATABASE_BINARY_D3THDT
$#        dt      lcdt      beam     npltc    psetid
    0.0001         0         0         0         0
*DATABASE_BINARY_D3DUMP
$#        dt      lcdt      beam     npltc    psetid
    0.0001         0         0         0         0
*DATABASE_EXTENT_BINARY
$#   neiph     neips    maxint    strflg    sigflg    epsflg    rltflg    engflg
         6         0         3         1         1         1         1         1
$#  cmpflg    ieverp    beamip     dcomp      shge     stssz    n3thdt   ialemat
         0         0         0         1         1         0         0         0
$
$ === END DATABASE OUTPUT CONTROL ===
$
*END
