*KEYWORD
$
$ Simple HEX8 box: 100x20x20 mm, 4x4x2 elements (32 elements, 75 nodes)
$ PID=1, MAT_ELASTIC (Steel: E=210000, nu=0.3, rho=7.85e-9)
$
*TITLE
Box 100x20x20 mm
*MAT_ELASTIC
$#     mid        ro         e        pr
         1  7.85E-09   210000.     0.300
*SECTION_SOLID
$#   secid    elform
         1         1
*PART
Box solid
$#     pid     secid       mid
         1         1         1
*NODE
$#   nid               x               y               z
       1 0.000000000e+00-1.000000000e+01-1.000000000e+01
       2 2.500000000e+01-1.000000000e+01-1.000000000e+01
       3 5.000000000e+01-1.000000000e+01-1.000000000e+01
       4 7.500000000e+01-1.000000000e+01-1.000000000e+01
       5 1.000000000e+02-1.000000000e+01-1.000000000e+01
       6 0.000000000e+00-5.000000000e+00-1.000000000e+01
       7 2.500000000e+01-5.000000000e+00-1.000000000e+01
       8 5.000000000e+01-5.000000000e+00-1.000000000e+01
       9 7.500000000e+01-5.000000000e+00-1.000000000e+01
      10 1.000000000e+02-5.000000000e+00-1.000000000e+01
      11 0.000000000e+00 0.000000000e+00-1.000000000e+01
      12 2.500000000e+01 0.000000000e+00-1.000000000e+01
      13 5.000000000e+01 0.000000000e+00-1.000000000e+01
      14 7.500000000e+01 0.000000000e+00-1.000000000e+01
      15 1.000000000e+02 0.000000000e+00-1.000000000e+01
      16 0.000000000e+00 5.000000000e+00-1.000000000e+01
      17 2.500000000e+01 5.000000000e+00-1.000000000e+01
      18 5.000000000e+01 5.000000000e+00-1.000000000e+01
      19 7.500000000e+01 5.000000000e+00-1.000000000e+01
      20 1.000000000e+02 5.000000000e+00-1.000000000e+01
$ ... 55 like lines cut
*ELEMENT_SOLID
$#   eid     pid      n1      n2      n3      n4      n5      n6      n7      n8
       1       1       1       2       7       6      26      27      32      31
       2       1       2       3       8       7      27      28      33      32
       3       1       3       4       9       8      28      29      34      33
       4       1       4       5      10       9      29      30      35      34
       5       1       6       7      12      11      31      32      37      36
       6       1       7       8      13      12      32      33      38      37
       7       1       8       9      14      13      33      34      39      38
       8       1       9      10      15      14      34      35      40      39
       9       1      11      12      17      16      36      37      42      41
      10       1      12      13      18      17      37      38      43      42
      11       1      13      14      19      18      38      39      44      43
      12       1      14      15      20      19      39      40      45      44
      13       1      16      17      22      21      41      42      47      46
      14       1      17      18      23      22      42      43      48      47
      15       1      18      19      24      23      43      44      49      48
      16       1      19      20      25      24      44      45      50      49
      17       1      26      27      32      31      51      52      57      56
      18       1      27      28      33      32      52      53      58      57
      19       1      28      29      34      33      53      54      59      58
      20       1      29      30      35      34      54      55      60      59
$ ... 12 like lines cut
*END
