*KEYWORD
*TITLE
2x2x1 HEX8 block - IGA upgrade example
*NODE
$#   nid               x               y               z
       1       0.000000       0.000000       0.000000
       2      10.000000       0.000000       0.000000
       3      20.000000       0.000000       0.000000
       4       0.000000      10.000000       0.000000
       5      10.000000      10.000000       0.000000
       6      20.000000      10.000000       0.000000
       7       0.000000       0.000000       5.000000
       8      10.000000       0.000000       5.000000
       9      20.000000       0.000000       5.000000
      10       0.000000      10.000000       5.000000
      11      10.000000      10.000000       5.000000
      12      20.000000      10.000000       5.000000
      13       0.000000       0.000000      10.000000
      14      10.000000       0.000000      10.000000
      15      20.000000       0.000000      10.000000
      16       0.000000      10.000000      10.000000
      17      10.000000      10.000000      10.000000
      18      20.000000      10.000000      10.000000
*ELEMENT_SOLID
$#   eid     pid      n1      n2      n3      n4      n5      n6      n7      n8
       1       1       1       2       5       4       7       8      11      10
       2       1       2       3       6       5       8       9      12      11
       3       2       7       8      11      10      13      14      17      16
       4       2       8       9      12      11      14      15      18      17
*PART
Lower layer (IGA upgrade target)
$#     pid     secid       mid
         1         1         1
*PART
Upper layer (standard FE)
$#     pid     secid       mid
         2         1         1
*SECTION_SOLID
$#  secid    elform
         1         1
*MAT_ELASTIC
$#     mid        ro         e        pr        da        db  not used
         1  7.85E-09    210000       0.3
*END
