*KEYWORD
$ IGA solid wrapper for FE part 2
$ Generated by KooRemapper
$---+----1----+----2----+----3----+----4----+----5----+----6----+----7----+----8
*PARAMETER_LOCAL
$    PRMR1      VAL1
Iid                4
Imid               3
Ifepid             2
Rxmin              0
Rxmax             20
Rymin              0
Rymax             10
Rzmin              5
Rzmax             10
Rrr                4
Rrs                4
Rrt                4
Rofr               4
Rofs               2
Roft               1
Iir                0
Istyp              4
Rtollg         0.001
Rrxminn           -4
Rrxmaxx           24
Rryminn           -2
Rrymaxx           12
Rrzminn            4
Rrzmaxx           11
*MAT_ELASTIC
$#     mid        ro         e        pr        da        db  not used
         3  7.85E-09    210000       0.3
*IGA_DEV_STABILIZATION
$#      sid      styp                                   tollg
       &id     &styp                                  &tollg
*PART
$#
IGA_Part_2
$#     pid     secid       mid     eosid      hgid      grav    adpopt      tmid
      &id      &id     &mid
*SECTION_IGA_SOLID
$#   secid    elform        ir
      &id        0      &ir
*IGA_DEV_VOLUME_XYZ
$#     vid   patchid       pid      esid      fsid    TETMSH      MYTP
      &id      &id                                  -1
$#     PID of existing FEA solid with tetmesh
   &fepid
$#   brid1     brid2     brid3     brid4     brid5     brid6     brid7     brid8

*IGA_SOLID
$#     sid       pid      nisr      niss      nist       rid
      &id      &id        1        1        1      &id
*IGA_3D_NURBS_XYZ
$# patchid        nr        ns        nt        pr        ps        pt
      &id        3        3        2        2        2        1
$#    unir      unis      unit
        1        1        1
$#            rfirst               rlast
                  -4                  24
$#            sfirst               slast
                  -2                  12
$#            tfirst               tlast
                   4                  11
$#                 x                   y                   z                 wgt
                  -4                  -2                   4                 1.0
                  10                  -2                   4                 1.0
                  24                  -2                   4                 1.0
                  -4                   5                   4                 1.0
                  10                   5                   4                 1.0
                  24                   5                   4                 1.0
                  -4                  12                   4                 1.0
                  10                  12                   4                 1.0
                  24                  12                   4                 1.0
                  -4                  -2                  11                 1.0
                  10                  -2                  11                 1.0
                  24                  -2                  11                 1.0
                  -4                   5                  11                 1.0
                  10                   5                  11                 1.0
                  24                   5                  11                 1.0
                  -4                  12                  11                 1.0
                  10                  12                  11                 1.0
                  24                  12                  11                 1.0
*IGA_REFINE_SOLID
$      rid      rtyp
      &id        2
$    hrtyp        rr        rs        rt
        2      &rr      &rs      &rt
$      itr       its       itt
        2        2        2
*END
