$# Shell mesh 10x10 QUAD4 for indent testing (1mm spacing, z=0 plane)
$# X: 0..10, Y: 0..10, Z: 0, thickness=1.0
*KEYWORD
*NODE
       1  0.0000000e+000  0.0000000e+000  0.0000000e+000
       2  1.0000000e+000  0.0000000e+000  0.0000000e+000
       3  2.0000000e+000  0.0000000e+000  0.0000000e+000
       4  3.0000000e+000  0.0000000e+000  0.0000000e+000
       5  4.0000000e+000  0.0000000e+000  0.0000000e+000
       6  5.0000000e+000  0.0000000e+000  0.0000000e+000
       7  6.0000000e+000  0.0000000e+000  0.0000000e+000
       8  7.0000000e+000  0.0000000e+000  0.0000000e+000
       9  8.0000000e+000  0.0000000e+000  0.0000000e+000
      10  9.0000000e+000  0.0000000e+000  0.0000000e+000
      11  1.0000000e+001  0.0000000e+000  0.0000000e+000
      12  0.0000000e+000  1.0000000e+000  0.0000000e+000
      13  1.0000000e+000  1.0000000e+000  0.0000000e+000
      14  2.0000000e+000  1.0000000e+000  0.0000000e+000
      15  3.0000000e+000  1.0000000e+000  0.0000000e+000
      16  4.0000000e+000  1.0000000e+000  0.0000000e+000
      17  5.0000000e+000  1.0000000e+000  0.0000000e+000
      18  6.0000000e+000  1.0000000e+000  0.0000000e+000
      19  7.0000000e+000  1.0000000e+000  0.0000000e+000
      20  8.0000000e+000  1.0000000e+000  0.0000000e+000
$ ... 101 like lines cut
*ELEMENT_SHELL
       1       1       1       2      13      12
       2       1       2       3      14      13
       3       1       3       4      15      14
       4       1       4       5      16      15
       5       1       5       6      17      16
       6       1       6       7      18      17
       7       1       7       8      19      18
       8       1       8       9      20      19
       9       1       9      10      21      20
      10       1      10      11      22      21
      11       1      12      13      24      23
      12       1      13      14      25      24
      13       1      14      15      26      25
      14       1      15      16      27      26
      15       1      16      17      28      27
      16       1      17      18      29      28
      17       1      18      19      30      29
      18       1      19      20      31      30
      19       1      20      21      32      31
      20       1      21      22      33      32
$ ... 80 like lines cut
*MAT_ELASTIC
$#     mid        ro         e        pr
         1  7.85E-09  2.10E+05       0.3
*SECTION_SHELL
$#  secid    elform      shrf       nip     propt   qr/irid     icomp     setyp
         1         2       1.0         2       1.0         0         0         1
$#      t1        t2        t3        t4      nloc     marea      idof    edgset
       1.0       1.0       1.0       1.0       0.0       0.0       0.0       0.0
*PART
Shell plate
$#     pid     secid       mid
         1         1         1
*END