$# LS-DYNA Keyword File
$# Combined test: 3-part model for assemble replace + squeeze
$# Part 1: Coarse arc region (to be replaced with detail mesh)
$# Part 2: Adjacent block (to be preserved as-is)
$# Part 3: Inner block (to be squeezed)
*KEYWORD
*NODE
$#   nid               x               y               z
         1   0.0000000e+00   0.0000000e+00   0.0000000e+00
         2   5.0000000e+00   0.0000000e+00   0.0000000e+00
         3   5.0000000e+00   2.0000000e+00   0.0000000e+00
         4   0.0000000e+00   2.0000000e+00   0.0000000e+00
         5   0.0000000e+00   0.0000000e+00   2.0000000e+00
         6   5.0000000e+00   0.0000000e+00   2.0000000e+00
         7   5.0000000e+00   2.0000000e+00   2.0000000e+00
         8   0.0000000e+00   2.0000000e+00   2.0000000e+00
      17 6.020000000e+00 0.000000000e+00 0.000000000e+00
      18 7.980000000e+00 0.000000000e+00 0.000000000e+00
      19 7.980000000e+00 2.000000000e+00 0.000000000e+00
      20 6.020000000e+00 2.000000000e+00 0.000000000e+00
      21 6.020000000e+00 0.000000000e+00 2.000000000e+00
      22 7.980000000e+00 0.000000000e+00 2.000000000e+00
      23 7.980000000e+00 2.000000000e+00 2.000000000e+00
      24 6.020000000e+00 2.000000000e+00 2.000000000e+00
      25 9.900214108e+00 2.000000000e+00-6.540314080e-03
      26 9.815304115e+00 2.000000000e+00 1.292209258e+00
      27 9.562665723e+00 2.000000000e+00 2.562308566e+00
      28 9.146407357e+00 2.000000000e+00 3.788565928e+00
$ ... 26 like lines cut
*ELEMENT_SOLID
$#   eid     pid      n1      n2      n3      n4      n5      n6      n7      n8
       1       2       1       2       3       4       5       6       7       8
       3       3      17      18      19      20      21      22      23      24
       4       1      25      26      31      30      40      41      46      45
       5       1      26      27      32      31      41      42      47      46
       6       1      27      28      33      32      42      43      48      47
       7       1      28      29      34      33      43      44      49      48
       8       1      30      31      36      35      45      46      51      50
       9       1      31      32      37      36      46      47      52      51
      10       1      32      33      38      37      47      48      53      52
      11       1      33      34      39      38      48      49      54      53
*PART
Arc region (coarse)
$#   pid             secid     mid    eosid    hgid      adpopt      tmid
         1                1       1        0       0           0         0
*PART
Adjacent block
$#   pid             secid     mid    eosid    hgid      adpopt      tmid
         2                1       1        0       0           0         0
*PART
Inner block
$#   pid             secid     mid    eosid    hgid      adpopt      tmid
         3                1       1        0       0           0         0
*SECTION_SOLID
$#  secid    elform
         1         1
*MAT_ELASTIC
$#     mid        ro         e        pr
         1  7.85E-09  2.10E+05       0.3
*CONTACT_AUTOMATIC_SURFACE_TO_SURFACE
$# This contact definition should be preserved
$#  ssid      msid
         2         3
*BOUNDARY_SPC_NODE
$#   nid       dofx      dofy      dofz     dofrx     dofry     dofrz
         1       1         1         1         0         0         0
         4       1         1         1         0         0         0
*INCLUDE
assembled_combined_result_dynain.dat
*END
