$# LS-DYNA Keyword File
$# Replace test: 2-part model for assemble replace operation
$# Part 1: Coarse arc region (to be replaced with detail mesh)
$# Part 2: Adjacent block (to be preserved)
*KEYWORD
*NODE
$#   nid               x               y               z
         1   0.0000000e+00   0.0000000e+00   0.0000000e+00
         2   5.0000000e+00   0.0000000e+00   0.0000000e+00
         3   5.0000000e+00   2.0000000e+00   0.0000000e+00
         4   0.0000000e+00   2.0000000e+00   0.0000000e+00
         5   0.0000000e+00   0.0000000e+00   2.0000000e+00
         6   5.0000000e+00   0.0000000e+00   2.0000000e+00
         7   5.0000000e+00   2.0000000e+00   2.0000000e+00
         8   0.0000000e+00   2.0000000e+00   2.0000000e+00
      17 9.900214108e+00 2.000000000e+00-6.540314080e-03
      18 9.815304115e+00 2.000000000e+00 1.292209258e+00
      19 9.562665723e+00 2.000000000e+00 2.562308566e+00
      20 9.146407357e+00 2.000000000e+00 3.788565928e+00
      21 8.570566726e+00 2.000000000e+00 4.955771131e+00
      22 9.900214108e+00 1.000000000e+00-6.540314080e-03
      23 9.815304115e+00 1.000000000e+00 1.292209258e+00
      24 9.562665723e+00 1.000000000e+00 2.562308566e+00
      25 9.146407357e+00 1.000000000e+00 3.788565928e+00
      26 8.570566726e+00 1.000000000e+00 4.955771131e+00
      27 9.900214108e+00 0.000000000e+00-6.540314080e-03
      28 9.815304115e+00-3.330669074e-16 1.292209258e+00
$ ... 18 like lines cut
*ELEMENT_SOLID
$#   eid     pid      n1      n2      n3      n4      n5      n6      n7      n8
       1       2       1       2       3       4       5       6       7       8
       3       1      17      18      23      22      32      33      38      37
       4       1      18      19      24      23      33      34      39      38
       5       1      19      20      25      24      34      35      40      39
       6       1      20      21      26      25      35      36      41      40
       7       1      22      23      28      27      37      38      43      42
       8       1      23      24      29      28      38      39      44      43
       9       1      24      25      30      29      39      40      45      44
      10       1      25      26      31      30      40      41      46      45
*PART
Arc region (coarse)
$#   pid             secid     mid    eosid    hgid      adpopt      tmid
         1                1       1        0       0           0         0
*PART
Adjacent block
$#   pid             secid     mid    eosid    hgid      adpopt      tmid
         2                1       1        0       0           0         0
*SECTION_SOLID
$#  secid    elform
         1         1
*MAT_ELASTIC
$#     mid        ro         e        pr
         1  7.85E-09  2.10E+05       0.3
*BOUNDARY_SPC_NODE
$# This should be preserved in the output
$#   nid       dofx      dofy      dofz     dofrx     dofry     dofrz
         1       1         1         1         0         0         0
         4       1         1         1         0         0         0
         5       1         1         1         0         0         0
         8       1         1         1         0         0         0
*INCLUDE
assembled_replace_result_dynain.dat
*END
