$# Simple 2x2x2 HEX8 block for bend testing
$# X: 0..10, Y: 0..10, Z: 0..2 (thin plate, 2 layers)
$# PID=1, E=210000, nu=0.3
*KEYWORD
*NODE
$#   nid               x               y               z
       1   0.0000000e+00   0.0000000e+00   0.0000000e+00
       2   5.0000000e+00   0.0000000e+00   0.0000000e+00
       3   1.0000000e+01   0.0000000e+00   0.0000000e+00
       4   0.0000000e+00   5.0000000e+00   0.0000000e+00
       5   5.0000000e+00   5.0000000e+00   0.0000000e+00
       6   1.0000000e+01   5.0000000e+00   0.0000000e+00
       7   0.0000000e+00   1.0000000e+01   0.0000000e+00
       8   5.0000000e+00   1.0000000e+01   0.0000000e+00
       9   1.0000000e+01   1.0000000e+01   0.0000000e+00
      10   0.0000000e+00   0.0000000e+00   1.0000000e+00
      11   5.0000000e+00   0.0000000e+00   1.0000000e+00
      12   1.0000000e+01   0.0000000e+00   1.0000000e+00
      13   0.0000000e+00   5.0000000e+00   1.0000000e+00
      14   5.0000000e+00   5.0000000e+00   1.0000000e+00
      15   1.0000000e+01   5.0000000e+00   1.0000000e+00
      16   0.0000000e+00   1.0000000e+01   1.0000000e+00
      17   5.0000000e+00   1.0000000e+01   1.0000000e+00
      18   1.0000000e+01   1.0000000e+01   1.0000000e+00
      19   0.0000000e+00   0.0000000e+00   2.0000000e+00
      20   5.0000000e+00   0.0000000e+00   2.0000000e+00
$ ... 7 like lines cut
*ELEMENT_SOLID
$#   eid     pid      n1      n2      n3      n4      n5      n6      n7      n8
       1       1       1       2       5       4      10      11      14      13
       2       1       2       3       6       5      11      12      15      14
       3       1       4       5       8       7      13      14      17      16
       4       1       5       6       9       8      14      15      18      17
       5       1      10      11      14      13      19      20      23      22
       6       1      11      12      15      14      20      21      24      23
       7       1      13      14      17      16      22      23      26      25
       8       1      14      15      18      17      23      24      27      26
*MAT_ELASTIC
$#     mid        ro         e        pr
         1  7.85E-09  2.10E+05       0.3
*SECTION_SOLID
$#  secid    elform
         1         1
*PART
Block
$#     pid     secid       mid
         1         1         1
*END
