*KEYWORD
*TITLE
2-layer cylinder for wrap test
*NODE
$   nid               x               y               z
       1      10.0000000       0.0000000       0.0000000
       2       7.0710678       7.0710678       0.0000000
       3       0.0000000      10.0000000       0.0000000
       4      -7.0710678       7.0710678       0.0000000
       5     -10.0000000       0.0000000       0.0000000
       6      -7.0710678      -7.0710678       0.0000000
       7       0.0000000     -10.0000000       0.0000000
       8       7.0710678      -7.0710678       0.0000000
       9      12.0000000       0.0000000       0.0000000
      10       8.4852814       8.4852814       0.0000000
      11       0.0000000      12.0000000       0.0000000
      12      -8.4852814       8.4852814       0.0000000
      13     -12.0000000       0.0000000       0.0000000
      14      -8.4852814      -8.4852814       0.0000000
      15       0.0000000     -12.0000000       0.0000000
      16       8.4852814      -8.4852814       0.0000000
      17      14.0000000       0.0000000       0.0000000
      18       9.8994949       9.8994949       0.0000000
      19       0.0000000      14.0000000       0.0000000
      20      -9.8994949       9.8994949       0.0000000
$ ... 28 like lines cut
*ELEMENT_SOLID
$  eid  pid   n1   n2   n3   n4   n5   n6   n7   n8
     1    1    1    2   10    9   25   26   34   33
     2    1    2    3   11   10   26   27   35   34
     3    1    3    4   12   11   27   28   36   35
     4    1    4    5   13   12   28   29   37   36
     5    1    5    6   14   13   29   30   38   37
     6    1    6    7   15   14   30   31   39   38
     7    1    7    8   16   15   31   32   40   39
     8    1    8    1    9   16   32   25   33   40
     9    2    9   10   18   17   33   34   42   41
    10    2   10   11   19   18   34   35   43   42
    11    2   11   12   20   19   35   36   44   43
    12    2   12   13   21   20   36   37   45   44
    13    2   13   14   22   21   37   38   46   45
    14    2   14   15   23   22   38   39   47   46
    15    2   15   16   24   23   39   40   48   47
    16    2   16    9   17   24   40   33   41   48
*MAT_ELASTIC
$      mid        ro         e        pr
         1 7.850E-09 2.100E+05       0.3
         2 7.850E-09 2.100E+05       0.3
*SECTION_SOLID
$    secid    elform
         1         1
         2         1
*PART
Inner layer
$      pid     secid       mid
         1         1         1
*PART
Outer layer
$      pid     secid       mid
         2         2         2
*INCLUDE
cylinder_wrapped.dynain
*END
