*KEYWORD
*TITLE
Two HEX8 elements sharing a face - for disconnect test
*NODE
$#   nid               x               y               z
       1       0.000000       0.000000       0.000000
       2       1.000000       0.000000       0.000000
       3       1.000000       1.000000       0.000000
       4       0.000000       1.000000       0.000000
       5       0.000000       0.000000       1.000000
       6       1.000000       0.000000       1.000000
       7       1.000000       1.000000       1.000000
       8       0.000000       1.000000       1.000000
       9       0.000000       0.000000       2.000000
      10       1.000000       0.000000       2.000000
      11       1.000000       1.000000       2.000000
      12       0.000000       1.000000       2.000000
      13 0.000000000e+00 0.000000000e+00 0.000000000e+00
      14 1.000000000e+00 0.000000000e+00 0.000000000e+00
      15 1.000000000e+00 1.000000000e+00 0.000000000e+00
      16 0.000000000e+00 1.000000000e+00 0.000000000e+00
      17 0.000000000e+00 0.000000000e+00 1.000000000e+00
      18 1.000000000e+00 0.000000000e+00 1.000000000e+00
      19 1.000000000e+00 1.000000000e+00 1.000000000e+00
      20 0.000000000e+00 1.000000000e+00 1.000000000e+00
$ ... 8 like lines cut
*ELEMENT_SOLID
$#   eid     pid      n1      n2      n3      n4      n5      n6      n7      n8
       1       1      13      14      15      16      17      18      19      20
       2       1      21      22      23      24      25      26      27      28
*PART
Single part - full disconnect test
$#     pid     secid       mid
         1         1         1
*MAT_ELASTIC
$#     mid        ro         e        pr
         1  7.85E-09    210000       0.3
*SECTION_SOLID_PERI
$# SECTION_SOLID_PERI generated by disconnect (full)
$#  secid    elform
         1        48
$#      dr     ptype
      1.01         1
*END
