*KEYWORD
*TITLE
4 HEX8 elements stacked in z - restack+czm test
*NODE
$#   nid               x               y               z
       1       0.000000       0.000000       0.000000
       2       1.000000       0.000000       0.000000
       3       1.000000       1.000000       0.000000
       4       0.000000       1.000000       0.000000
      13       0.000000       0.000000       3.000000
      14       1.000000       0.000000       3.000000
      15       1.000000       1.000000       3.000000
      16       0.000000       1.000000       3.000000
      17 0.000000000e+00 0.000000000e+00 1.000000000e+00
      18 0.000000000e+00 0.000000000e+00 2.000000000e+00
      19 1.000000000e+00 0.000000000e+00 1.000000000e+00
      20 1.000000000e+00 0.000000000e+00 2.000000000e+00
      21 1.000000000e+00 1.000000000e+00 1.000000000e+00
      22 1.000000000e+00 1.000000000e+00 2.000000000e+00
      23 0.000000000e+00 1.000000000e+00 1.000000000e+00
      24 0.000000000e+00 1.000000000e+00 2.000000000e+00
      25 0.000000000e+00 0.000000000e+00 1.000000000e+00
      26 0.000000000e+00 0.000000000e+00 2.000000000e+00
      27 1.000000000e+00 0.000000000e+00 1.000000000e+00
      28 1.000000000e+00 0.000000000e+00 2.000000000e+00
$ ... 4 like lines cut
*ELEMENT_SOLID
$#   eid     pid      n1      n2      n3      n4      n5      n6      n7      n8
       4       2       1       2       3       4      17      19      21      23
       5       3      25      27      29      31      18      20      22      24
       6       4      26      28      30      32      13      14      15      16
       7       5      17      19      21      23      25      27      29      31
       8       5      18      20      22      24      26      28      30      32
*PART
Stack part
$#     pid     secid       mid
         1         1         1
*SECTION_SOLID
$#  secid    elform
         1         1
*MAT_ELASTIC
$#     mid        ro         e        pr
         1  7.85E-09    210000       0.3
*MAT_ELASTIC
     MAT01  7.85E-09    210000       0.3
*SECTION_SOLID
$#  secid    elform
         2         1
*PART
Restack Layer 1
$#     pid     secid       mid
         2         2         0
*SECTION_SOLID
$#  secid    elform
         3         1
*PART
Restack Layer 2
$#     pid     secid       mid
         3         3         0
*SECTION_SOLID
$#  secid    elform
         4         1
*PART
Restack Layer 3
$#     pid     secid       mid
         4         4         0
*MAT_COHESIVE_MIXED_MODE
$#     mid        ro     roflg   intfail        en        et       gic      giic
         2     0.0         0       0.0     1.0E6     1.0E6       1.0       2.0
$#      xmu         t         s       und       utd     gamma
       1.0      50.0      30.0       0.0       0.0       1.0
*SECTION_SOLID
$#  secid    elform
         5        19
*PART
Cohesive interface
$#     pid     secid       mid
         5         5         2
*END
