*KEYWORD
*TITLE
4 HEX8 elements stacked in z - restack+czm test
*NODE
$#   nid               x               y               z
       1       0.000000       0.000000       0.000000
       2       1.000000       0.000000       0.000000
       3       1.000000       1.000000       0.000000
       4       0.000000       1.000000       0.000000
       5       0.000000       0.000000       1.000000
       6       1.000000       0.000000       1.000000
       7       1.000000       1.000000       1.000000
       8       0.000000       1.000000       1.000000
       9       0.000000       0.000000       2.000000
      10       1.000000       0.000000       2.000000
      11       1.000000       1.000000       2.000000
      12       0.000000       1.000000       2.000000
      13       0.000000       0.000000       3.000000
      14       1.000000       0.000000       3.000000
      15       1.000000       1.000000       3.000000
      16       0.000000       1.000000       3.000000
*ELEMENT_SOLID
$#   eid     pid      n1      n2      n3      n4      n5      n6      n7      n8
       1       1       1       2       3       4       5       6       7       8
       2       1       5       6       7       8       9      10      11      12
       3       1       9      10      11      12      13      14      15      16
*PART
Stack part
$#     pid     secid       mid
         1         1         1
*SECTION_SOLID
$#  secid    elform
         1         1
*MAT_ELASTIC
$#     mid        ro         e        pr
         1  7.85E-09    210000       0.3
*END
