*PARAMETER
$# prmname   value
I HGID1            1I LCID1       181001
I MID1             1I SECID1           1
I PID1             1
*HOURGLASS_TITLE
Rubber_HG
$     HGID       IHQ        QH        IBQ        Q1        Q2    QB/VDC        QW
    &HGID1         5    0.0500         0       0.0       0.0       0.0       0.0
*DEFINE_CURVE_TITLE
MAT181_StressStrain
$     LCID      SIDR       SFA       SFO      OFFA      OFFO    DATTYP     LCINT
    &LCID1         0     1.000     1.000       0.0       0.0         0         0
$                  X                   Y
           -0.950000        -2769.441683
           -0.940000        -1309.122667
           -0.930000         -619.316808
           -0.920000         -293.475592
           -0.910000         -139.559101
           -0.900000          -66.854098
           -0.890000          -32.510687
           -0.880000          -16.288008
           -0.870000           -8.624957
           -0.860000           -5.005188
           -0.850000           -3.295330
           -0.840000           -2.487650
           -0.830000           -2.106130
           -0.820000           -1.925912
           -0.810000           -1.840783
           -0.800000           -1.800571
           -0.795500           -1.789532
           -0.790250           -1.775843
           -0.784500           -1.761504
           -0.778750           -1.747495
$ ... 149 like lines cut
*MAT_SIMPLIFIED_RUBBER/FOAM_TITLE
Rubber_MAT181_Optimal
$      MID       RHO        KM        MU         G      SIGF       REF     PRTEN
     &MID11.1000E-09   10.0000       0.0       0.0       0.0       0.0       0.0
$      SGL        SW        ST   LC/TBID   TENSION     RTYPE    AVGOPT        PR
    1.0000    1.0000    1.0000    &LCID1    1.0000       0.0       0.0       0.0
$   LCUNLD        HU     SHAPE      STOL     VISCO    HISOUT
         0       0.0       0.0       0.0    1.0000         0
$       Gi     BETAi     VFLAG
    0.0500 3000.0000         0
    0.1000  300.0000
$
*SECTION_SOLID_TITLE
Tet4_Section
$    SECID    ELFORM       AET
   &SECID1        13         0
$
*PART
Rubber_Cube
$      PID     SECID       MID     EOSID      HGID      GRAV    ADPOPT      TMID
     &PID1   &SECID1     &MID1         0    &HGID1         0         0         0
$
*END
